
Spectre (R) Circuit Simulator
Version 19.1.0.322.isr5 64bit -- 28 Mar 2020
Copyright (C) 1989-2020 Cadence Design Systems, Inc. All rights reserved worldwide. Cadence and Spectre are registered trademarks of Cadence Design Systems, Inc. All others are the property of their respective holders.

Includes RSA BSAFE(R) Cryptographic or Security Protocol Software from RSA Security, Inc.

User: snguyen   Host: vndc-cad-svr15   HostID: A20A4102   PID: 7731
Memory  available: 12.2592 GB  physical: 540.5512 GB
Linux   : CentOS Linux release 7.9.2009 (Core)
CPU Type: Intel(R) Xeon(R) Gold 6334 CPU @ 3.60GHz
        Socket: Processors [Frequency]
        0:       0 [1191.4],  1 [3604.8],  2 [3604.2],  3 [2489.5],  4 [3602.9]
                 5 [1748.8],  6 [3604.2],  7 [831.9]
        1:       8 [800.0],  9 [800.0], 10 [800.0], 11 [800.0], 12 [3692.1]
                13 [3692.1], 14 [3692.3], 15 [3674.5]
        
System load averages (1min, 5min, 15min) : 47.7 %, 47.9 %, 48.0 %
HPC is enabled
Affinity is set by user to processors:  0  1  2  3  4  5  6  7 

Simulating `TT_1.10_3.00_25_1.225.sp' on vndc-cad-svr15 at 1:17:21 PM, Sun Jun 23, 2024 (process id: 7731).
Current working directory: /home/data/pfm_328ti64kx144_v1a0/workarea/snguyen/tmsim/run_spectre/PROG_PROG_TC
Environment variable:
    SPECTRE_DEFAULTS= +lorder MMSIM:PRODUCT +lqtimeout 0 +lsuspend +disk_check=100E7
Command line:
    /pkg/mmsim-19.10.322/tools.lnx86/bin/spectre -64 +mt=8  \
        ++aps=liberal TT_1.10_3.00_25_1.225.sp -outdir  \
        ./output/TT_1.10_3.00_25_1.225 -raw  \
        ./output/TT_1.10_3.00_25_1.225 =log  \
        ./output/TT_1.10_3.00_25_1.225.log

Loading /pkg/mmsim-19.10.322/tools.lnx86/cmi/lib/64bit/5.0/libinfineon_sh.so ...
Loading /pkg/mmsim-19.10.322/tools.lnx86/cmi/lib/64bit/5.0/libphilips_o_sh.so ...
Loading /pkg/mmsim-19.10.322/tools.lnx86/cmi/lib/64bit/5.0/libphilips_sh.so ...
Loading /pkg/mmsim-19.10.322/tools.lnx86/cmi/lib/64bit/5.0/libsparam_sh.so ...
Loading /pkg/mmsim-19.10.322/tools.lnx86/cmi/lib/64bit/5.0/libstmodels_sh.so ...
Reading file:  /home/data/pfm_328ti64kx144_v1a0/workarea/snguyen/tmsim/run_spectre/PROG_PROG_TC/TT_1.10_3.00_25_1.225.sp
Reading file:  /pkg/mmsim-19.10.322/tools.lnx86/spectre/etc/configs/spectre.cfg
Reading link:  /iplicense/cad/technology/esf3-28tid/opus61/latest/models/spectre/latest
Reading link:  /iplicense/cad/technology/esf3-28tid/opus61/latest
Reading file:  /iplicense/cad/technology/esf3-28tid/opus61/designkit_r0.1-2024.03.08-8m_6x2s/models/spectre/spec_7/sstlib.00.scs
Reading link:  /iplicense/cad/technology/esf3-28tid/opus61/latest/models/spectre/latest/spec
Reading file:  /iplicense/cad/technology/esf3-28tid/opus61/designkit_r0.1-2024.03.08-8m_6x2s/foundry/t28/mcache_dev_t28/models/MODELS-RELEASE-2024.02.16_1_f/spec/model.paths.nominal.scs
Reading file:  /iplicense/cad/technology/esf3-28tid/opus61/designkit_r0.1-2024.03.08-8m_6x2s/foundry/t28/mcache_dev_t28/models/MODELS-RELEASE-2024.02.16_1_f/cdk_eqn/cdk_include.scs
Reading file:  /iplicense/cad/technology/esf3-28tid/opus61/designkit_r0.1-2024.03.08-8m_6x2s/foundry/t28/mcache_dev_t28/models/MODELS-RELEASE-2024.02.16_1_f/spec/cpab4n.cap_npl_hvnw_1p5v_705.scs
Reading file:  /iplicense/cad/technology/esf3-28tid/opus61/designkit_r0.1-2024.03.08-8m_6x2s/foundry/t28/mcache_dev_t28/models/MODELS-RELEASE-2024.02.16_1_f/spec/cpab4n.cap_npl_hvnw_3p3v_706.scs
Reading file:  /iplicense/cad/technology/esf3-28tid/opus61/designkit_r0.1-2024.03.08-8m_6x2s/foundry/t28/mcache_dev_t28/models/MODELS-RELEASE-2024.02.16_1_f/spec/cpab4n.cap_npl_hvnw_hv_707.scs
Reading file:  /iplicense/cad/technology/esf3-28tid/opus61/designkit_r0.1-2024.03.08-8m_6x2s/foundry/t28/mcache_dev_t28/models/MODELS-RELEASE-2024.02.16_1_f/spec/cpab4n.cap_npl_nw_1p0v_700.scs
Reading file:  /iplicense/cad/technology/esf3-28tid/opus61/designkit_r0.1-2024.03.08-8m_6x2s/foundry/t28/mcache_dev_t28/models/MODELS-RELEASE-2024.02.16_1_f/spec/cpab4n.cap_npl_nw_1p5v_701.scs
Reading file:  /iplicense/cad/technology/esf3-28tid/opus61/designkit_r0.1-2024.03.08-8m_6x2s/foundry/t28/mcache_dev_t28/models/MODELS-RELEASE-2024.02.16_1_f/spec/cpab4n.cap_npl_nw_3p3v_703.scs
Reading file:  /iplicense/cad/technology/esf3-28tid/opus61/designkit_r0.1-2024.03.08-8m_6x2s/foundry/t28/mcache_dev_t28/models/MODELS-RELEASE-2024.02.16_1_f/spec/cpab4n.cap_npl_nw_5v_704.scs
Reading file:  /iplicense/cad/technology/esf3-28tid/opus61/designkit_r0.1-2024.03.08-8m_6x2s/foundry/t28/mcache_dev_t28/models/MODELS-RELEASE-2024.02.16_1_f/spec/cpab4n.cap_npl_pw_1p0v_709.scs
Reading file:  /iplicense/cad/technology/esf3-28tid/opus61/designkit_r0.1-2024.03.08-8m_6x2s/foundry/t28/mcache_dev_t28/models/MODELS-RELEASE-2024.02.16_1_f/spec/cpab4n.cap_ppl_nw_1p0v_708.scs
Reading file:  /iplicense/cad/technology/esf3-28tid/opus61/designkit_r0.1-2024.03.08-8m_6x2s/foundry/t28/mcache_dev_t28/models/MODELS-RELEASE-2024.02.16_1_f/spec/cpacmn.cap_lf_755.scs
Reading file:  /iplicense/cad/technology/esf3-28tid/opus61/designkit_r0.1-2024.03.08-8m_6x2s/foundry/t28/mcache_dev_t28/models/MODELS-RELEASE-2024.02.16_1_f/spec/cpacmn.cap_lf_756.scs
Reading file:  /iplicense/cad/technology/esf3-28tid/opus61/designkit_r0.1-2024.03.08-8m_6x2s/foundry/t28/mcache_dev_t28/models/MODELS-RELEASE-2024.02.16_1_f/spec/cpacmn.cap_lf_757.scs
Reading file:  /iplicense/cad/technology/esf3-28tid/opus61/designkit_r0.1-2024.03.08-8m_6x2s/foundry/t28/mcache_dev_t28/models/MODELS-RELEASE-2024.02.16_1_f/spec/cpacmn.cap_lf_poly_750.scs
Reading file:  /iplicense/cad/technology/esf3-28tid/opus61/designkit_r0.1-2024.03.08-8m_6x2s/foundry/t28/mcache_dev_t28/models/MODELS-RELEASE-2024.02.16_1_f/spec/cpacmn.cap_lf_poly_751.scs
Reading file:  /iplicense/cad/technology/esf3-28tid/opus61/designkit_r0.1-2024.03.08-8m_6x2s/foundry/t28/mcache_dev_t28/models/MODELS-RELEASE-2024.02.16_1_f/spec/cpacmn.cap_lf_poly_752.scs
Reading file:  /iplicense/cad/technology/esf3-28tid/opus61/designkit_r0.1-2024.03.08-8m_6x2s/foundry/t28/mcache_dev_t28/models/MODELS-RELEASE-2024.02.16_1_f/spec/dagdin.diode_nsd_pw_hv_esf3_502.scs
Reading file:  /iplicense/cad/technology/esf3-28tid/opus61/designkit_r0.1-2024.03.08-8m_6x2s/foundry/t28/mcache_dev_t28/models/MODELS-RELEASE-2024.02.16_1_f/spec/dagdin.diode_nsd_pw_lv_503.scs
Reading file:  /iplicense/cad/technology/esf3-28tid/opus61/designkit_r0.1-2024.03.08-8m_6x2s/foundry/t28/mcache_dev_t28/models/MODELS-RELEASE-2024.02.16_1_f/spec/dagdin.diode_nw_pw_504.scs
Reading file:  /iplicense/cad/technology/esf3-28tid/opus61/designkit_r0.1-2024.03.08-8m_6x2s/foundry/t28/mcache_dev_t28/models/MODELS-RELEASE-2024.02.16_1_f/spec/dagdin.diode_nw_pw_hv_esf3_505.scs
Reading file:  /iplicense/cad/technology/esf3-28tid/opus61/designkit_r0.1-2024.03.08-8m_6x2s/foundry/t28/mcache_dev_t28/models/MODELS-RELEASE-2024.02.16_1_f/spec/dagdin.diode_psd_nw_hv_esf3_506.scs
Reading file:  /iplicense/cad/technology/esf3-28tid/opus61/designkit_r0.1-2024.03.08-8m_6x2s/foundry/t28/mcache_dev_t28/models/MODELS-RELEASE-2024.02.16_1_f/spec/dagdin.diode_psd_nw_lv_507.scs
Reading file:  /iplicense/cad/technology/esf3-28tid/opus61/designkit_r0.1-2024.03.08-8m_6x2s/foundry/t28/mcache_dev_t28/models/MODELS-RELEASE-2024.02.16_1_f/spec/magb4n.nch_1p0v_100.scs
Reading file:  /iplicense/cad/technology/esf3-28tid/opus61/designkit_r0.1-2024.03.08-8m_6x2s/foundry/t28/mcache_dev_t28/models/MODELS-RELEASE-2024.02.16_1_f/spec/magb4n.nch_1p5v_116.scs
Reading file:  /iplicense/cad/technology/esf3-28tid/opus61/designkit_r0.1-2024.03.08-8m_6x2s/foundry/t28/mcache_dev_t28/models/MODELS-RELEASE-2024.02.16_1_f/spec/magb4n.nch_1p5v_af_117.scs
Reading file:  /iplicense/cad/technology/esf3-28tid/opus61/designkit_r0.1-2024.03.08-8m_6x2s/foundry/t28/mcache_dev_t28/models/MODELS-RELEASE-2024.02.16_1_f/spec/magb4n.nch_3p3v_128.scs
Reading file:  /iplicense/cad/technology/esf3-28tid/opus61/designkit_r0.1-2024.03.08-8m_6x2s/foundry/t28/mcache_dev_t28/models/MODELS-RELEASE-2024.02.16_1_f/spec/magb4n.nch_3p3v_lvt_130.scs
Reading file:  /iplicense/cad/technology/esf3-28tid/opus61/designkit_r0.1-2024.03.08-8m_6x2s/foundry/t28/mcache_dev_t28/models/MODELS-RELEASE-2024.02.16_1_f/spec/magb4n.nch_5v_131.scs
Reading file:  /iplicense/cad/technology/esf3-28tid/opus61/designkit_r0.1-2024.03.08-8m_6x2s/foundry/t28/mcache_dev_t28/models/MODELS-RELEASE-2024.02.16_1_f/spec/magb4n.nch_5v_lvt_147.scs
Reading file:  /iplicense/cad/technology/esf3-28tid/opus61/designkit_r0.1-2024.03.08-8m_6x2s/foundry/t28/mcache_dev_t28/models/MODELS-RELEASE-2024.02.16_1_f/spec/magb4n.nch_flash_esf3_800.scs
Reading file:  /iplicense/cad/technology/esf3-28tid/opus61/designkit_r0.1-2024.03.08-8m_6x2s/foundry/t28/mcache_dev_t28/models/MODELS-RELEASE-2024.02.16_1_f/spec/magb4n.nch_hv_133.scs
Reading file:  /iplicense/cad/technology/esf3-28tid/opus61/designkit_r0.1-2024.03.08-8m_6x2s/foundry/t28/mcache_dev_t28/models/MODELS-RELEASE-2024.02.16_1_f/spec/magb4n.nch_hv_lvt_134.scs
Reading file:  /iplicense/cad/technology/esf3-28tid/opus61/designkit_r0.1-2024.03.08-8m_6x2s/foundry/t28/mcache_dev_t28/models/MODELS-RELEASE-2024.02.16_1_f/spec/magb4n.nch_hv_lvt_pbasy_149.scs
Reading file:  /iplicense/cad/technology/esf3-28tid/opus61/designkit_r0.1-2024.03.08-8m_6x2s/foundry/t28/mcache_dev_t28/models/MODELS-RELEASE-2024.02.16_1_f/spec/magb4n.nch_hv_pbasy_148.scs
Reading file:  /iplicense/cad/technology/esf3-28tid/opus61/designkit_r0.1-2024.03.08-8m_6x2s/foundry/t28/mcache_dev_t28/models/MODELS-RELEASE-2024.02.16_1_f/spec/magb4n.pch_1p0v_160.scs
Reading file:  /iplicense/cad/technology/esf3-28tid/opus61/designkit_r0.1-2024.03.08-8m_6x2s/foundry/t28/mcache_dev_t28/models/MODELS-RELEASE-2024.02.16_1_f/spec/magb4n.pch_1p5v_168.scs
Reading file:  /iplicense/cad/technology/esf3-28tid/opus61/designkit_r0.1-2024.03.08-8m_6x2s/foundry/t28/mcache_dev_t28/models/MODELS-RELEASE-2024.02.16_1_f/spec/magb4n.pch_1p5v_af_169.scs
Reading file:  /iplicense/cad/technology/esf3-28tid/opus61/designkit_r0.1-2024.03.08-8m_6x2s/foundry/t28/mcache_dev_t28/models/MODELS-RELEASE-2024.02.16_1_f/spec/magb4n.pch_3p3v_175.scs
Reading file:  /iplicense/cad/technology/esf3-28tid/opus61/designkit_r0.1-2024.03.08-8m_6x2s/foundry/t28/mcache_dev_t28/models/MODELS-RELEASE-2024.02.16_1_f/spec/magb4n.pch_5v_176.scs
Reading file:  /iplicense/cad/technology/esf3-28tid/opus61/designkit_r0.1-2024.03.08-8m_6x2s/foundry/t28/mcache_dev_t28/models/MODELS-RELEASE-2024.02.16_1_f/spec/magb4n.pch_hv_177.scs
Reading file:  /iplicense/cad/technology/esf3-28tid/opus61/designkit_r0.1-2024.03.08-8m_6x2s/foundry/t28/mcache_dev_t28/models/MODELS-RELEASE-2024.02.16_1_f/spec/magb4n.pch_hv_pbasy_182.scs
Reading file:  /iplicense/cad/technology/esf3-28tid/opus61/designkit_r0.1-2024.03.08-8m_6x2s/foundry/t28/mcache_dev_t28/models/MODELS-RELEASE-2024.02.16_1_f/spec/qaggpn.pnp_hvnw_siblk_400.scs
Reading file:  /iplicense/cad/technology/esf3-28tid/opus61/designkit_r0.1-2024.03.08-8m_6x2s/foundry/t28/mcache_dev_t28/models/MODELS-RELEASE-2024.02.16_1_f/spec/qaggpn.pnp_sub_cw_450.scs
Reading file:  /iplicense/cad/technology/esf3-28tid/opus61/designkit_r0.1-2024.03.08-8m_6x2s/foundry/t28/mcache_dev_t28/models/MODELS-RELEASE-2024.02.16_1_f/spec/ragvan.dvr.scs
Reading file:  /iplicense/cad/technology/esf3-28tid/opus61/designkit_r0.1-2024.03.08-8m_6x2s/foundry/t28/mcache_dev_t28/models/MODELS-RELEASE-2024.02.16_1_f/spec/rparmn.res_npl_siblk_602.scs
Reading file:  /iplicense/cad/technology/esf3-28tid/opus61/designkit_r0.1-2024.03.08-8m_6x2s/foundry/t28/mcache_dev_t28/models/MODELS-RELEASE-2024.02.16_1_f/spec/rparmn.res_nwell_609.scs
Reading file:  /iplicense/cad/technology/esf3-28tid/opus61/designkit_r0.1-2024.03.08-8m_6x2s/foundry/t28/mcache_dev_t28/models/MODELS-RELEASE-2024.02.16_1_f/spec/rparmn.res_nwell_nar_610.scs
Reading file:  /iplicense/cad/technology/esf3-28tid/opus61/designkit_r0.1-2024.03.08-8m_6x2s/foundry/t28/mcache_dev_t28/models/MODELS-RELEASE-2024.02.16_1_f/spec/rparmn.res_poly_600.scs
Reading file:  /iplicense/cad/technology/esf3-28tid/opus61/designkit_r0.1-2024.03.08-8m_6x2s/foundry/t28/mcache_dev_t28/models/MODELS-RELEASE-2024.02.16_1_f/spec/rparmn.res_poly_vhr_siblk_612.scs
Reading file:  /iplicense/cad/technology/esf3-28tid/opus61/designkit_r0.1-2024.03.08-8m_6x2s/foundry/t28/mcache_dev_t28/models/MODELS-RELEASE-2024.02.16_1_f/spec/rparmn.res_ztc_nw_605.scs
Reading file:  /iplicense/cad/technology/esf3-28tid/opus61/designkit_r0.1-2024.03.08-8m_6x2s/foundry/t28/mcache_dev_t28/models/MODELS-RELEASE-2024.02.16_1_f/spec_asserts/assert_include.scs
Reading file:  /iplicense/cad/technology/esf3-28tid/opus61/designkit_r0.1-2024.03.08-8m_6x2s/foundry/t28/mcache_dev_t28/models/MODELS-RELEASE-2024.02.16_1_f/spec_asserts/t28_aoc_assert.scs
Reading file:  /iplicense/cad/technology/esf3-28tid/opus61/designkit_r0.1-2024.03.08-8m_6x2s/foundry/t28/mcache_dev_t28/models/MODELS-RELEASE-2024.02.16_1_f/spec_asserts/t28_aoc_manual_assert.scs
Reading file:  /iplicense/cad/technology/esf3-28tid/opus61/designkit_r0.1-2024.03.08-8m_6x2s/foundry/t28/mcache_dev_t28/models/MODELS-RELEASE-2024.02.16_1_f/spec_asserts/t28_aoc_kill_assert.scs
Reading file:  /iplicense/cad/technology/esf3-28tid/opus61/designkit_r0.1-2024.03.08-8m_6x2s/foundry/t28/mcache_dev_t28/models/MODELS-RELEASE-2024.02.16_1_f/spec_asserts/assert_constants.scs
Reading file:  /iplicense/cad/technology/esf3-28tid/opus61/designkit_r0.1-2024.03.08-8m_6x2s/foundry/t28/mcache_dev_t28/models/MODELS-RELEASE-2024.02.16_1_f/spec/verilog-a/ddvr.va
Reading file:  /pkg/mmsim-19.10.322/tools.lnx86/spectre/etc/ahdl/constants.vams
Reading file:  /pkg/mmsim-19.10.322/tools.lnx86/spectre/etc/ahdl/disciplines.vams
Reading file:  /iplicense/cad/technology/esf3-28tid/opus61/designkit_r0.1-2024.03.08-8m_6x2s/foundry/t28/mcache_dev_t28/models/MODELS-RELEASE-2024.02.16_1_f/spec/verilog-a/ddvr_fet.va
Reading file:  /iplicense/cad/technology/esf3-28tid/opus61/designkit_r0.1-2024.03.08-8m_6x2s/foundry/t28/mcache_dev_t28/models/MODELS-RELEASE-2024.02.16_1_f/spec/verilog-a/dvr.va
Reading file:  /home/data/pfm_328ti64kx144_v1a0/workarea/snguyen/tmsim/data/sti/cm_spectre.inc
Reading file:  /home/data/pfm_328ti64kx144_v1a0/workarea/snguyen/tmsim/data/ckt/netlist_tc_2ip.inc
Reading file:  /home/data/pfm_328ti64kx144_v1a0/workarea/snguyen/tmsim/data/ckt/sim_tc_328ti64kx144_v1a0_2ip.scs
Reading file:  /home/data/pfm_328ti64kx144_v1a0/workarea/snguyen/tmsim/data/ckt/cell2t_state.lib
Reading file:  /home/data/pfm_328ti64kx144_v1a0/workarea/snguyen/tmsim/data/vec/SSTIP_csim_PROG_PROG_TC.vec

Notice from spectre during Digital Vector read-in.
    Process Vector Files.
    File read: ../../data/vec/SSTIP_csim_PROG_PROG_TC.vec

Reading file:  /home/data/pfm_328ti64kx144_v1a0/workarea/snguyen/tmsim/data/sti/cm_probe_tc_2ip.inc
Time for NDB Parsing: CPU = 380.411 ms, elapsed = 2.72164 s.
Time accumulated: CPU = 494.626 ms, elapsed = 2.72164 s.
Peak resident memory used = 79.8 Mbytes.


Warning from spectre during circuit read-in.
    WARNING (SFE-2649): Terminals of top-level instance `vgnd', in file`TT_1.10_3.00_25_1.225.sp', at line 34, are connected. Remove the instance and rerun the simulation.
Warning from spectre during hierarchy flattening.
    WARNING (SFE-105): "/iplicense/cad/technology/esf3-28tid/opus61/latest/models/spectre/latest/spec/../spec_asserts/assert_include.scs" 21: `redefinableparams' has been ignored because it is not an option. Correct the name and rerun the simulation. Type `spectre -h options' to get more information on valid option parameters.
Warning from spectre in `PCH_HV_177_T28':`PFMX4.IPFM[0].IIP.Imidblk.Ihvctrl.Ihvupdet.PHCAS.MP9999', in `PCH_HV_177':`PFMX4.IPFM[0].IIP.Imidblk.Ihvctrl.Ihvupdet.PHCAS', in `hvupdet':`PFMX4.IPFM[0].IIP.Imidblk.Ihvctrl.Ihvupdet', in `hvctrl':`PFMX4.IPFM[0].IIP.Imidblk.Ihvctrl', in `midblk':`PFMX4.IPFM[0].IIP.Imidblk', in `pfm_328ti64kx144_v1a0_IP':`PFMX4.IPFM[0].IIP', in `pfm_328ti64kx144_v1a0':`PFMX4.IPFM[0]', in `tc_4xpfm_1xbias_v1a0':`PFMX4', during hierarchy flattening.
    WARNING (SFE-101): "/iplicense/cad/technology/esf3-28tid/opus61/latest/models/spectre/latest/spec/magb4n.pch_hv_177.scs" 92: Parameter 'bv_enable' has been ignored because it has been assigned to instance PFMX4.IPFM[0].IIP.Imidblk.Ihvctrl.Ihvupdet.PHCAS.MP9999.PCH_HV_177_T28_mod of master 'bsim4'; however, it has not been defined for 'bsim4'. Specify a valid parameter and rerun the simulation.
Warning from spectre in `NCH_HV_133_T28':`PFMX4.IPFM[0].IIP.Imidblk.Ihvctrl.Ihvupdet.NHDIO2.MN9999', in `NCH_HV_133':`PFMX4.IPFM[0].IIP.Imidblk.Ihvctrl.Ihvupdet.NHDIO2', in `hvupdet':`PFMX4.IPFM[0].IIP.Imidblk.Ihvctrl.Ihvupdet', in `hvctrl':`PFMX4.IPFM[0].IIP.Imidblk.Ihvctrl', in `midblk':`PFMX4.IPFM[0].IIP.Imidblk', in `pfm_328ti64kx144_v1a0_IP':`PFMX4.IPFM[0].IIP', in `pfm_328ti64kx144_v1a0':`PFMX4.IPFM[0]', in `tc_4xpfm_1xbias_v1a0':`PFMX4', during hierarchy flattening.
    WARNING (SFE-101): "/iplicense/cad/technology/esf3-28tid/opus61/latest/models/spectre/latest/spec/magb4n.nch_hv_133.scs" 93: Parameter 'bv_enable' has been ignored because it has been assigned to instance PFMX4.IPFM[0].IIP.Imidblk.Ihvctrl.Ihvupdet.NHDIO2.MN9999.NCH_HV_133_T28_mod of master 'bsim4'; however, it has not been defined for 'bsim4'. Specify a valid parameter and rerun the simulation.
Warning from spectre in `NCH_HV_LVT_134_T28':`PFMX4.IPFM[0].IIP.Imidblk.Ihvctrl.Ihvupdet.NHZCAS.MN9999', in `NCH_HV_LVT_134':`PFMX4.IPFM[0].IIP.Imidblk.Ihvctrl.Ihvupdet.NHZCAS', in `hvupdet':`PFMX4.IPFM[0].IIP.Imidblk.Ihvctrl.Ihvupdet', in `hvctrl':`PFMX4.IPFM[0].IIP.Imidblk.Ihvctrl', in `midblk':`PFMX4.IPFM[0].IIP.Imidblk', in `pfm_328ti64kx144_v1a0_IP':`PFMX4.IPFM[0].IIP', in `pfm_328ti64kx144_v1a0':`PFMX4.IPFM[0]', in `tc_4xpfm_1xbias_v1a0':`PFMX4', during hierarchy flattening.
    WARNING (SFE-101): "/iplicense/cad/technology/esf3-28tid/opus61/latest/models/spectre/latest/spec/magb4n.nch_hv_lvt_134.scs" 95: Parameter 'bv_enable' has been ignored because it has been assigned to instance PFMX4.IPFM[0].IIP.Imidblk.Ihvctrl.Ihvupdet.NHZCAS.MN9999.NCH_HV_LVT_134_T28_mod of master 'bsim4'; however, it has not been defined for 'bsim4'. Specify a valid parameter and rerun the simulation.
Warning from spectre in `NCH_HV_133_T28':`PFMX4.IPFM[0].IIP.Imidblk.Ihvctrl.Ihvdn_vep.NHDIO2.MN9999', in `NCH_HV_133':`PFMX4.IPFM[0].IIP.Imidblk.Ihvctrl.Ihvdn_vep.NHDIO2', in `hvdndet':`PFMX4.IPFM[0].IIP.Imidblk.Ihvctrl.Ihvdn_vep', in `hvctrl':`PFMX4.IPFM[0].IIP.Imidblk.Ihvctrl', in `midblk':`PFMX4.IPFM[0].IIP.Imidblk', in `pfm_328ti64kx144_v1a0_IP':`PFMX4.IPFM[0].IIP', in `pfm_328ti64kx144_v1a0':`PFMX4.IPFM[0]', in `tc_4xpfm_1xbias_v1a0':`PFMX4', during hierarchy flattening.
    WARNING (SFE-101): "/iplicense/cad/technology/esf3-28tid/opus61/latest/models/spectre/latest/spec/magb4n.nch_hv_133.scs" 93: Parameter 'bv_enable' has been ignored because it has been assigned to instance PFMX4.IPFM[0].IIP.Imidblk.Ihvctrl.Ihvdn_vep.NHDIO2.MN9999.NCH_HV_133_T28_mod of master 'bsim4'; however, it has not been defined for 'bsim4'. Specify a valid parameter and rerun the simulation.
Warning from spectre in `NCH_HV_LVT_134_T28':`PFMX4.IPFM[0].IIP.Imidblk.Ihvctrl.Ihvdn_vep.NHZCAS.MN9999', in `NCH_HV_LVT_134':`PFMX4.IPFM[0].IIP.Imidblk.Ihvctrl.Ihvdn_vep.NHZCAS', in `hvdndet':`PFMX4.IPFM[0].IIP.Imidblk.Ihvctrl.Ihvdn_vep', in `hvctrl':`PFMX4.IPFM[0].IIP.Imidblk.Ihvctrl', in `midblk':`PFMX4.IPFM[0].IIP.Imidblk', in `pfm_328ti64kx144_v1a0_IP':`PFMX4.IPFM[0].IIP', in `pfm_328ti64kx144_v1a0':`PFMX4.IPFM[0]', in `tc_4xpfm_1xbias_v1a0':`PFMX4', during hierarchy flattening.
    WARNING (SFE-101): "/iplicense/cad/technology/esf3-28tid/opus61/latest/models/spectre/latest/spec/magb4n.nch_hv_lvt_134.scs" 95: Parameter 'bv_enable' has been ignored because it has been assigned to instance PFMX4.IPFM[0].IIP.Imidblk.Ihvctrl.Ihvdn_vep.NHZCAS.MN9999.NCH_HV_LVT_134_T28_mod of master 'bsim4'; however, it has not been defined for 'bsim4'. Specify a valid parameter and rerun the simulation.
Warning from spectre in `PCH_HV_177_T28':`PFMX4.IPFM[0].IIP.Imidblk.Ihvctrl.Ihvegilmt.Ihvsw.PHCAS_R.MP9999', in `PCH_HV_177':`PFMX4.IPFM[0].IIP.Imidblk.Ihvctrl.Ihvegilmt.Ihvsw.PHCAS_R', in `hvsw_25toVEP':`PFMX4.IPFM[0].IIP.Imidblk.Ihvctrl.Ihvegilmt.Ihvsw', in `hvegilmt':`PFMX4.IPFM[0].IIP.Imidblk.Ihvctrl.Ihvegilmt', in `hvctrl':`PFMX4.IPFM[0].IIP.Imidblk.Ihvctrl', in `midblk':`PFMX4.IPFM[0].IIP.Imidblk', in `pfm_328ti64kx144_v1a0_IP':`PFMX4.IPFM[0].IIP', in `pfm_328ti64kx144_v1a0':`PFMX4.IPFM[0]', in `tc_4xpfm_1xbias_v1a0':`PFMX4', during hierarchy flattening.
    WARNING (SFE-101): "/iplicense/cad/technology/esf3-28tid/opus61/latest/models/spectre/latest/spec/magb4n.pch_hv_177.scs" 92: Parameter 'bv_enable' has been ignored because it has been assigned to instance PFMX4.IPFM[0].IIP.Imidblk.Ihvctrl.Ihvegilmt.Ihvsw.PHCAS_R.MP9999.PCH_HV_177_T28_mod of master 'bsim4'; however, it has not been defined for 'bsim4'. Specify a valid parameter and rerun the simulation.
Warning from spectre in `NCH_HV_133_T28':`PFMX4.IPFM[0].IIP.Imidblk.Ihvctrl.Ihvegilmt.Ihvsw.NHCAS_L.MN9999', in `NCH_HV_133':`PFMX4.IPFM[0].IIP.Imidblk.Ihvctrl.Ihvegilmt.Ihvsw.NHCAS_L', in `hvsw_25toVEP':`PFMX4.IPFM[0].IIP.Imidblk.Ihvctrl.Ihvegilmt.Ihvsw', in `hvegilmt':`PFMX4.IPFM[0].IIP.Imidblk.Ihvctrl.Ihvegilmt', in `hvctrl':`PFMX4.IPFM[0].IIP.Imidblk.Ihvctrl', in `midblk':`PFMX4.IPFM[0].IIP.Imidblk', in `pfm_328ti64kx144_v1a0_IP':`PFMX4.IPFM[0].IIP', in `pfm_328ti64kx144_v1a0':`PFMX4.IPFM[0]', in `tc_4xpfm_1xbias_v1a0':`PFMX4', during hierarchy flattening.
    WARNING (SFE-101): "/iplicense/cad/technology/esf3-28tid/opus61/latest/models/spectre/latest/spec/magb4n.nch_hv_133.scs" 93: Parameter 'bv_enable' has been ignored because it has been assigned to instance PFMX4.IPFM[0].IIP.Imidblk.Ihvctrl.Ihvegilmt.Ihvsw.NHCAS_L.MN9999.NCH_HV_133_T28_mod of master 'bsim4'; however, it has not been defined for 'bsim4'. Specify a valid parameter and rerun the simulation.
Warning from spectre in `PCH_HV_177_T28':`PFMX4.IPFM[0].IIP.Imidblk.Ihvctrl.Ihvegilmt.PHBIAS.MP9999', in `PCH_HV_177':`PFMX4.IPFM[0].IIP.Imidblk.Ihvctrl.Ihvegilmt.PHBIAS', in `hvegilmt':`PFMX4.IPFM[0].IIP.Imidblk.Ihvctrl.Ihvegilmt', in `hvctrl':`PFMX4.IPFM[0].IIP.Imidblk.Ihvctrl', in `midblk':`PFMX4.IPFM[0].IIP.Imidblk', in `pfm_328ti64kx144_v1a0_IP':`PFMX4.IPFM[0].IIP', in `pfm_328ti64kx144_v1a0':`PFMX4.IPFM[0]', in `tc_4xpfm_1xbias_v1a0':`PFMX4', during hierarchy flattening.
    WARNING (SFE-101): "/iplicense/cad/technology/esf3-28tid/opus61/latest/models/spectre/latest/spec/magb4n.pch_hv_177.scs" 92: Parameter 'bv_enable' has been ignored because it has been assigned to instance PFMX4.IPFM[0].IIP.Imidblk.Ihvctrl.Ihvegilmt.PHBIAS.MP9999.PCH_HV_177_T28_mod of master 'bsim4'; however, it has not been defined for 'bsim4'. Specify a valid parameter and rerun the simulation.
Warning from spectre in `NCH_HV_133_T28':`PFMX4.IPFM[0].IIP.Imidblk.Ihvctrl.Ihvegilmt.NHDIO2.MN9999', in `NCH_HV_133':`PFMX4.IPFM[0].IIP.Imidblk.Ihvctrl.Ihvegilmt.NHDIO2', in `hvegilmt':`PFMX4.IPFM[0].IIP.Imidblk.Ihvctrl.Ihvegilmt', in `hvctrl':`PFMX4.IPFM[0].IIP.Imidblk.Ihvctrl', in `midblk':`PFMX4.IPFM[0].IIP.Imidblk', in `pfm_328ti64kx144_v1a0_IP':`PFMX4.IPFM[0].IIP', in `pfm_328ti64kx144_v1a0':`PFMX4.IPFM[0]', in `tc_4xpfm_1xbias_v1a0':`PFMX4', during hierarchy flattening.
    WARNING (SFE-101): "/iplicense/cad/technology/esf3-28tid/opus61/latest/models/spectre/latest/spec/magb4n.nch_hv_133.scs" 93: Parameter 'bv_enable' has been ignored because it has been assigned to instance PFMX4.IPFM[0].IIP.Imidblk.Ihvctrl.Ihvegilmt.NHDIO2.MN9999.NCH_HV_133_T28_mod of master 'bsim4'; however, it has not been defined for 'bsim4'. Specify a valid parameter and rerun the simulation.
Warning from spectre in `NCH_HV_LVT_134_T28':`PFMX4.IPFM[0].IIP.Imidblk.Ihvctrl.Ihvegilmt.NHZCAS0.MN9999', in `NCH_HV_LVT_134':`PFMX4.IPFM[0].IIP.Imidblk.Ihvctrl.Ihvegilmt.NHZCAS0', in `hvegilmt':`PFMX4.IPFM[0].IIP.Imidblk.Ihvctrl.Ihvegilmt', in `hvctrl':`PFMX4.IPFM[0].IIP.Imidblk.Ihvctrl', in `midblk':`PFMX4.IPFM[0].IIP.Imidblk', in `pfm_328ti64kx144_v1a0_IP':`PFMX4.IPFM[0].IIP', in `pfm_328ti64kx144_v1a0':`PFMX4.IPFM[0]', in `tc_4xpfm_1xbias_v1a0':`PFMX4', during hierarchy flattening.
    WARNING (SFE-101): "/iplicense/cad/technology/esf3-28tid/opus61/latest/models/spectre/latest/spec/magb4n.nch_hv_lvt_134.scs" 95: Parameter 'bv_enable' has been ignored because it has been assigned to instance PFMX4.IPFM[0].IIP.Imidblk.Ihvctrl.Ihvegilmt.NHZCAS0.MN9999.NCH_HV_LVT_134_T28_mod of master 'bsim4'; however, it has not been defined for 'bsim4'. Specify a valid parameter and rerun the simulation.
Warning from spectre in `NCH_HV_PBASY_148_T28':`PFMX4.IPFM[0].IIP.Imidblk.Imid_t.Ivegcg_sw.NHVEPL.MN9999', in `NCH_HV_PBASY_148':`PFMX4.IPFM[0].IIP.Imidblk.Imid_t.Ivegcg_sw.NHVEPL', in `vegcg_sw_ref':`PFMX4.IPFM[0].IIP.Imidblk.Imid_t.Ivegcg_sw', in `mid4m_ref':`PFMX4.IPFM[0].IIP.Imidblk.Imid_t', in `midblk':`PFMX4.IPFM[0].IIP.Imidblk', in `pfm_328ti64kx144_v1a0_IP':`PFMX4.IPFM[0].IIP', in `pfm_328ti64kx144_v1a0':`PFMX4.IPFM[0]', in `tc_4xpfm_1xbias_v1a0':`PFMX4', during hierarchy flattening.
    WARNING (SFE-101): "/iplicense/cad/technology/esf3-28tid/opus61/latest/models/spectre/latest/spec/magb4n.nch_hv_pbasy_148.scs" 90: Parameter 'bv_enable' has been ignored because it has been assigned to instance PFMX4.IPFM[0].IIP.Imidblk.Imid_t.Ivegcg_sw.NHVEPL.MN9999.NCH_HV_PBASY_148_T28_mod of master 'bsim4'; however, it has not been defined for 'bsim4'. Specify a valid parameter and rerun the simulation.
Warning from spectre in `NCH_HV_PBASY_148_T28':`PFMX4.IPFM[0].IIP.Imidblk.Imid_t.Ivegcg_sw.NHVCG_CAS[7].MN9999', in `NCH_HV_PBASY_148':`PFMX4.IPFM[0].IIP.Imidblk.Imid_t.Ivegcg_sw.NHVCG_CAS[7]', in `vegcg_sw_ref':`PFMX4.IPFM[0].IIP.Imidblk.Imid_t.Ivegcg_sw', in `mid4m_ref':`PFMX4.IPFM[0].IIP.Imidblk.Imid_t', in `midblk':`PFMX4.IPFM[0].IIP.Imidblk', in `pfm_328ti64kx144_v1a0_IP':`PFMX4.IPFM[0].IIP', in `pfm_328ti64kx144_v1a0':`PFMX4.IPFM[0]', in `tc_4xpfm_1xbias_v1a0':`PFMX4', during hierarchy flattening.
    WARNING (SFE-101): "/iplicense/cad/technology/esf3-28tid/opus61/latest/models/spectre/latest/spec/magb4n.nch_hv_pbasy_148.scs" 90: Parameter 'bv_enable' has been ignored because it has been assigned to instance PFMX4.IPFM[0].IIP.Imidblk.Imid_t.Ivegcg_sw.NHVCG_CAS[7].MN9999.NCH_HV_PBASY_148_T28_mod of master 'bsim4'; however, it has not been defined for 'bsim4'. Specify a valid parameter and rerun the simulation.
Warning from spectre in `NCH_HV_PBASY_148_T28':`PFMX4.IPFM[0].IIP.Imidblk.Imid_t.Ivegcg_sw.NHVCGREF_CAS.MN9999', in `NCH_HV_PBASY_148':`PFMX4.IPFM[0].IIP.Imidblk.Imid_t.Ivegcg_sw.NHVCGREF_CAS', in `vegcg_sw_ref':`PFMX4.IPFM[0].IIP.Imidblk.Imid_t.Ivegcg_sw', in `mid4m_ref':`PFMX4.IPFM[0].IIP.Imidblk.Imid_t', in `midblk':`PFMX4.IPFM[0].IIP.Imidblk', in `pfm_328ti64kx144_v1a0_IP':`PFMX4.IPFM[0].IIP', in `pfm_328ti64kx144_v1a0':`PFMX4.IPFM[0]', in `tc_4xpfm_1xbias_v1a0':`PFMX4', during hierarchy flattening.
    WARNING (SFE-101): "/iplicense/cad/technology/esf3-28tid/opus61/latest/models/spectre/latest/spec/magb4n.nch_hv_pbasy_148.scs" 90: Parameter 'bv_enable' has been ignored because it has been assigned to instance PFMX4.IPFM[0].IIP.Imidblk.Imid_t.Ivegcg_sw.NHVCGREF_CAS.MN9999.NCH_HV_PBASY_148_T28_mod of master 'bsim4'; however, it has not been defined for 'bsim4'. Specify a valid parameter and rerun the simulation.
Warning from spectre in `NCH_HV_PBASY_148_T28':`PFMX4.IPFM[0].IIP.Imidblk.Imid_t.Ivegcg_sw.NHVEG_CAS.MN9999', in `NCH_HV_PBASY_148':`PFMX4.IPFM[0].IIP.Imidblk.Imid_t.Ivegcg_sw.NHVEG_CAS', in `vegcg_sw_ref':`PFMX4.IPFM[0].IIP.Imidblk.Imid_t.Ivegcg_sw', in `mid4m_ref':`PFMX4.IPFM[0].IIP.Imidblk.Imid_t', in `midblk':`PFMX4.IPFM[0].IIP.Imidblk', in `pfm_328ti64kx144_v1a0_IP':`PFMX4.IPFM[0].IIP', in `pfm_328ti64kx144_v1a0':`PFMX4.IPFM[0]', in `tc_4xpfm_1xbias_v1a0':`PFMX4', during hierarchy flattening.
    WARNING (SFE-101): "/iplicense/cad/technology/esf3-28tid/opus61/latest/models/spectre/latest/spec/magb4n.nch_hv_pbasy_148.scs" 90: Parameter 'bv_enable' has been ignored because it has been assigned to instance PFMX4.IPFM[0].IIP.Imidblk.Imid_t.Ivegcg_sw.NHVEG_CAS.MN9999.NCH_HV_PBASY_148_T28_mod of master 'bsim4'; however, it has not been defined for 'bsim4'. Specify a valid parameter and rerun the simulation.
Warning from spectre in `NCH_5V_131_T28':`PFMX4.IPFM[0].IIP.Imidblk.Imid_t.Ivegcg_sw.Ihvsw_vsl.NH_R.MN9999', in `NCH_5V_131':`PFMX4.IPFM[0].IIP.Imidblk.Imid_t.Ivegcg_sw.Ihvsw_vsl.NH_R', in `hvsw_25toVSL':`PFMX4.IPFM[0].IIP.Imidblk.Imid_t.Ivegcg_sw.Ihvsw_vsl', in `vegcg_sw_ref':`PFMX4.IPFM[0].IIP.Imidblk.Imid_t.Ivegcg_sw', in `mid4m_ref':`PFMX4.IPFM[0].IIP.Imidblk.Imid_t', in `midblk':`PFMX4.IPFM[0].IIP.Imidblk', in `pfm_328ti64kx144_v1a0_IP':`PFMX4.IPFM[0].IIP', in `pfm_328ti64kx144_v1a0':`PFMX4.IPFM[0]', in `tc_4xpfm_1xbias_v1a0':`PFMX4', during hierarchy flattening.
    WARNING (SFE-101): "/iplicense/cad/technology/esf3-28tid/opus61/latest/models/spectre/latest/spec/magb4n.nch_5v_131.scs" 86: Parameter 'bv_enable' has been ignored because it has been assigned to instance PFMX4.IPFM[0].IIP.Imidblk.Imid_t.Ivegcg_sw.Ihvsw_vsl.NH_R.MN9999.NCH_5V_131_T28_mod of master 'bsim4'; however, it has not been defined for 'bsim4'. Specify a valid parameter and rerun the simulation.
Warning from spectre in `PCH_5V_176_T28':`PFMX4.IPFM[0].IIP.Imidblk.Imid_t.Ivegcg_sw.Ihvsw_vsl.PHCAS_R.MP9999', in `PCH_5V_176':`PFMX4.IPFM[0].IIP.Imidblk.Imid_t.Ivegcg_sw.Ihvsw_vsl.PHCAS_R', in `hvsw_25toVSL':`PFMX4.IPFM[0].IIP.Imidblk.Imid_t.Ivegcg_sw.Ihvsw_vsl', in `vegcg_sw_ref':`PFMX4.IPFM[0].IIP.Imidblk.Imid_t.Ivegcg_sw', in `mid4m_ref':`PFMX4.IPFM[0].IIP.Imidblk.Imid_t', in `midblk':`PFMX4.IPFM[0].IIP.Imidblk', in `pfm_328ti64kx144_v1a0_IP':`PFMX4.IPFM[0].IIP', in `pfm_328ti64kx144_v1a0':`PFMX4.IPFM[0]', in `tc_4xpfm_1xbias_v1a0':`PFMX4', during hierarchy flattening.
    WARNING (SFE-101): "/iplicense/cad/technology/esf3-28tid/opus61/latest/models/spectre/latest/spec/magb4n.pch_5v_176.scs" 88: Parameter 'bv_enable' has been ignored because it has been assigned to instance PFMX4.IPFM[0].IIP.Imidblk.Imid_t.Ivegcg_sw.Ihvsw_vsl.PHCAS_R.MP9999.PCH_5V_176_T28_mod of master 'bsim4'; however, it has not been defined for 'bsim4'. Specify a valid parameter and rerun the simulation.
Warning from spectre in `PCH_HV_PBASY_182_T28':`PFMX4.IPFM[0].IIP.Imidblk.Imid_t.Ivegcg_sw.PHCGREF.MP9999', in `PCH_HV_PBASY_182':`PFMX4.IPFM[0].IIP.Imidblk.Imid_t.Ivegcg_sw.PHCGREF', in `vegcg_sw_ref':`PFMX4.IPFM[0].IIP.Imidblk.Imid_t.Ivegcg_sw', in `mid4m_ref':`PFMX4.IPFM[0].IIP.Imidblk.Imid_t', in `midblk':`PFMX4.IPFM[0].IIP.Imidblk', in `pfm_328ti64kx144_v1a0_IP':`PFMX4.IPFM[0].IIP', in `pfm_328ti64kx144_v1a0':`PFMX4.IPFM[0]', in `tc_4xpfm_1xbias_v1a0':`PFMX4', during hierarchy flattening.
    WARNING (SFE-101): "/iplicense/cad/technology/esf3-28tid/opus61/latest/models/spectre/latest/spec/magb4n.pch_hv_pbasy_182.scs" 87: Parameter 'bv_enable' has been ignored because it has been assigned to instance PFMX4.IPFM[0].IIP.Imidblk.Imid_t.Ivegcg_sw.PHCGREF.MP9999.PCH_HV_PBASY_182_T28_mod of master 'bsim4'; however, it has not been defined for 'bsim4'. Specify a valid parameter and rerun the simulation.
Warning from spectre in `PCH_HV_PBASY_182_T28':`PFMX4.IPFM[0].IIP.Imidblk.Imid_t.Ivegcg_sw.PHVCGNW.MP9999', in `PCH_HV_PBASY_182':`PFMX4.IPFM[0].IIP.Imidblk.Imid_t.Ivegcg_sw.PHVCGNW', in `vegcg_sw_ref':`PFMX4.IPFM[0].IIP.Imidblk.Imid_t.Ivegcg_sw', in `mid4m_ref':`PFMX4.IPFM[0].IIP.Imidblk.Imid_t', in `midblk':`PFMX4.IPFM[0].IIP.Imidblk', in `pfm_328ti64kx144_v1a0_IP':`PFMX4.IPFM[0].IIP', in `pfm_328ti64kx144_v1a0':`PFMX4.IPFM[0]', in `tc_4xpfm_1xbias_v1a0':`PFMX4', during hierarchy flattening.
    WARNING (SFE-101): "/iplicense/cad/technology/esf3-28tid/opus61/latest/models/spectre/latest/spec/magb4n.pch_hv_pbasy_182.scs" 87: Parameter 'bv_enable' has been ignored because it has been assigned to instance PFMX4.IPFM[0].IIP.Imidblk.Imid_t.Ivegcg_sw.PHVCGNW.MP9999.PCH_HV_PBASY_182_T28_mod of master 'bsim4'; however, it has not been defined for 'bsim4'. Specify a valid parameter and rerun the simulation.
Warning from spectre in `PCH_HV_PBASY_182_T28':`PFMX4.IPFM[0].IIP.Imidblk.Imid_t.Ivegcg_sw.PHVEP.MP9999', in `PCH_HV_PBASY_182':`PFMX4.IPFM[0].IIP.Imidblk.Imid_t.Ivegcg_sw.PHVEP', in `vegcg_sw_ref':`PFMX4.IPFM[0].IIP.Imidblk.Imid_t.Ivegcg_sw', in `mid4m_ref':`PFMX4.IPFM[0].IIP.Imidblk.Imid_t', in `midblk':`PFMX4.IPFM[0].IIP.Imidblk', in `pfm_328ti64kx144_v1a0_IP':`PFMX4.IPFM[0].IIP', in `pfm_328ti64kx144_v1a0':`PFMX4.IPFM[0]', in `tc_4xpfm_1xbias_v1a0':`PFMX4', during hierarchy flattening.
    WARNING (SFE-101): "/iplicense/cad/technology/esf3-28tid/opus61/latest/models/spectre/latest/spec/magb4n.pch_hv_pbasy_182.scs" 87: Parameter 'bv_enable' has been ignored because it has been assigned to instance PFMX4.IPFM[0].IIP.Imidblk.Imid_t.Ivegcg_sw.PHVEP.MP9999.PCH_HV_PBASY_182_T28_mod of master 'bsim4'; however, it has not been defined for 'bsim4'. Specify a valid parameter and rerun the simulation.
Warning from spectre in `PCH_HV_PBASY_182_T28':`PFMX4.IPFM[0].IIP.Imidblk.Imid_t.Ivegcg_sw.PHVEG_ERS.MP9999', in `PCH_HV_PBASY_182':`PFMX4.IPFM[0].IIP.Imidblk.Imid_t.Ivegcg_sw.PHVEG_ERS', in `vegcg_sw_ref':`PFMX4.IPFM[0].IIP.Imidblk.Imid_t.Ivegcg_sw', in `mid4m_ref':`PFMX4.IPFM[0].IIP.Imidblk.Imid_t', in `midblk':`PFMX4.IPFM[0].IIP.Imidblk', in `pfm_328ti64kx144_v1a0_IP':`PFMX4.IPFM[0].IIP', in `pfm_328ti64kx144_v1a0':`PFMX4.IPFM[0]', in `tc_4xpfm_1xbias_v1a0':`PFMX4', during hierarchy flattening.
    WARNING (SFE-101): "/iplicense/cad/technology/esf3-28tid/opus61/latest/models/spectre/latest/spec/magb4n.pch_hv_pbasy_182.scs" 87: Parameter 'bv_enable' has been ignored because it has been assigned to instance PFMX4.IPFM[0].IIP.Imidblk.Imid_t.Ivegcg_sw.PHVEG_ERS.MP9999.PCH_HV_PBASY_182_T28_mod of master 'bsim4'; however, it has not been defined for 'bsim4'. Specify a valid parameter and rerun the simulation.
Warning from spectre in `PCH_5V_176_T28':`PFMX4.IPFM[0].IIP.Imidblk.Imid_t.Ivegcg_sw.PHVEG_PRG.MP9999', in `PCH_5V_176':`PFMX4.IPFM[0].IIP.Imidblk.Imid_t.Ivegcg_sw.PHVEG_PRG', in `vegcg_sw_ref':`PFMX4.IPFM[0].IIP.Imidblk.Imid_t.Ivegcg_sw', in `mid4m_ref':`PFMX4.IPFM[0].IIP.Imidblk.Imid_t', in `midblk':`PFMX4.IPFM[0].IIP.Imidblk', in `pfm_328ti64kx144_v1a0_IP':`PFMX4.IPFM[0].IIP', in `pfm_328ti64kx144_v1a0':`PFMX4.IPFM[0]', in `tc_4xpfm_1xbias_v1a0':`PFMX4', during hierarchy flattening.
    WARNING (SFE-101): "/iplicense/cad/technology/esf3-28tid/opus61/latest/models/spectre/latest/spec/magb4n.pch_5v_176.scs" 88: Parameter 'bv_enable' has been ignored because it has been assigned to instance PFMX4.IPFM[0].IIP.Imidblk.Imid_t.Ivegcg_sw.PHVEG_PRG.MP9999.PCH_5V_176_T28_mod of master 'bsim4'; however, it has not been defined for 'bsim4'. Specify a valid parameter and rerun the simulation.
Warning from spectre in `PCH_HV_177_T28':`PFMX4.IPFM[0].IIP.Imidblk.Imid_t.Ivegcg_sw.PHCGREF_CAS.MP9999', in `PCH_HV_177':`PFMX4.IPFM[0].IIP.Imidblk.Imid_t.Ivegcg_sw.PHCGREF_CAS', in `vegcg_sw_ref':`PFMX4.IPFM[0].IIP.Imidblk.Imid_t.Ivegcg_sw', in `mid4m_ref':`PFMX4.IPFM[0].IIP.Imidblk.Imid_t', in `midblk':`PFMX4.IPFM[0].IIP.Imidblk', in `pfm_328ti64kx144_v1a0_IP':`PFMX4.IPFM[0].IIP', in `pfm_328ti64kx144_v1a0':`PFMX4.IPFM[0]', in `tc_4xpfm_1xbias_v1a0':`PFMX4', during hierarchy flattening.
    WARNING (SFE-101): "/iplicense/cad/technology/esf3-28tid/opus61/latest/models/spectre/latest/spec/magb4n.pch_hv_177.scs" 92: Parameter 'bv_enable' has been ignored because it has been assigned to instance PFMX4.IPFM[0].IIP.Imidblk.Imid_t.Ivegcg_sw.PHCGREF_CAS.MP9999.PCH_HV_177_T28_mod of master 'bsim4'; however, it has not been defined for 'bsim4'. Specify a valid parameter and rerun the simulation.
Warning from spectre in `PCH_HV_177_T28':`PFMX4.IPFM[0].IIP.Imidblk.Imid_t.Ivegcg_sw.PHVCGNW_UNS.MP9999', in `PCH_HV_177':`PFMX4.IPFM[0].IIP.Imidblk.Imid_t.Ivegcg_sw.PHVCGNW_UNS', in `vegcg_sw_ref':`PFMX4.IPFM[0].IIP.Imidblk.Imid_t.Ivegcg_sw', in `mid4m_ref':`PFMX4.IPFM[0].IIP.Imidblk.Imid_t', in `midblk':`PFMX4.IPFM[0].IIP.Imidblk', in `pfm_328ti64kx144_v1a0_IP':`PFMX4.IPFM[0].IIP', in `pfm_328ti64kx144_v1a0':`PFMX4.IPFM[0]', in `tc_4xpfm_1xbias_v1a0':`PFMX4', during hierarchy flattening.
    WARNING (SFE-101): "/iplicense/cad/technology/esf3-28tid/opus61/latest/models/spectre/latest/spec/magb4n.pch_hv_177.scs" 92: Parameter 'bv_enable' has been ignored because it has been assigned to instance PFMX4.IPFM[0].IIP.Imidblk.Imid_t.Ivegcg_sw.PHVCGNW_UNS.MP9999.PCH_HV_177_T28_mod of master 'bsim4'; however, it has not been defined for 'bsim4'. Specify a valid parameter and rerun the simulation.
Warning from spectre in `PCH_HV_177_T28':`PFMX4.IPFM[0].IIP.Imidblk.Imid_t.Ivegcg_sw.PHVCG_UNS[7].MP9999', in `PCH_HV_177':`PFMX4.IPFM[0].IIP.Imidblk.Imid_t.Ivegcg_sw.PHVCG_UNS[7]', in `vegcg_sw_ref':`PFMX4.IPFM[0].IIP.Imidblk.Imid_t.Ivegcg_sw', in `mid4m_ref':`PFMX4.IPFM[0].IIP.Imidblk.Imid_t', in `midblk':`PFMX4.IPFM[0].IIP.Imidblk', in `pfm_328ti64kx144_v1a0_IP':`PFMX4.IPFM[0].IIP', in `pfm_328ti64kx144_v1a0':`PFMX4.IPFM[0]', in `tc_4xpfm_1xbias_v1a0':`PFMX4', during hierarchy flattening.
    WARNING (SFE-101): "/iplicense/cad/technology/esf3-28tid/opus61/latest/models/spectre/latest/spec/magb4n.pch_hv_177.scs" 92: Parameter 'bv_enable' has been ignored because it has been assigned to instance PFMX4.IPFM[0].IIP.Imidblk.Imid_t.Ivegcg_sw.PHVCG_UNS[7].MP9999.PCH_HV_177_T28_mod of master 'bsim4'; however, it has not been defined for 'bsim4'. Specify a valid parameter and rerun the simulation.
Warning from spectre in `PCH_HV_177_T28':`PFMX4.IPFM[0].IIP.Imidblk.Imid_t.Ivegcg_sw.PHVEPL.MP9999', in `PCH_HV_177':`PFMX4.IPFM[0].IIP.Imidblk.Imid_t.Ivegcg_sw.PHVEPL', in `vegcg_sw_ref':`PFMX4.IPFM[0].IIP.Imidblk.Imid_t.Ivegcg_sw', in `mid4m_ref':`PFMX4.IPFM[0].IIP.Imidblk.Imid_t', in `midblk':`PFMX4.IPFM[0].IIP.Imidblk', in `pfm_328ti64kx144_v1a0_IP':`PFMX4.IPFM[0].IIP', in `pfm_328ti64kx144_v1a0':`PFMX4.IPFM[0]', in `tc_4xpfm_1xbias_v1a0':`PFMX4', during hierarchy flattening.
    WARNING (SFE-101): "/iplicense/cad/technology/esf3-28tid/opus61/latest/models/spectre/latest/spec/magb4n.pch_hv_177.scs" 92: Parameter 'bv_enable' has been ignored because it has been assigned to instance PFMX4.IPFM[0].IIP.Imidblk.Imid_t.Ivegcg_sw.PHVEPL.MP9999.PCH_HV_177_T28_mod of master 'bsim4'; however, it has not been defined for 'bsim4'. Specify a valid parameter and rerun the simulation.
Warning from spectre in `NCH_HV_133_T28':`PFMX4.IPFM[0].IIP.Imidblk.Imid_t.Imid[0].Ihvdisch.NH0_0[1].MN9999', in `NCH_HV_133':`PFMX4.IPFM[0].IIP.Imidblk.Imid_t.Imid[0].Ihvdisch.NH0_0[1]', in `hvdisch':`PFMX4.IPFM[0].IIP.Imidblk.Imid_t.Imid[0].Ihvdisch', in `mid2m_ref':`PFMX4.IPFM[0].IIP.Imidblk.Imid_t.Imid[0]', in `mid4m_ref':`PFMX4.IPFM[0].IIP.Imidblk.Imid_t', in `midblk':`PFMX4.IPFM[0].IIP.Imidblk', in `pfm_328ti64kx144_v1a0_IP':`PFMX4.IPFM[0].IIP', in `pfm_328ti64kx144_v1a0':`PFMX4.IPFM[0]', in `tc_4xpfm_1xbias_v1a0':`PFMX4', during hierarchy flattening.
    WARNING (SFE-101): "/iplicense/cad/technology/esf3-28tid/opus61/latest/models/spectre/latest/spec/magb4n.nch_hv_133.scs" 93: Parameter 'bv_enable' has been ignored because it has been assigned to instance PFMX4.IPFM[0].IIP.Imidblk.Imid_t.Imid[0].Ihvdisch.NH0_0[1].MN9999.NCH_HV_133_T28_mod of master 'bsim4'; however, it has not been defined for 'bsim4'. Specify a valid parameter and rerun the simulation.
Warning from spectre in `NCH_HV_133_T28':`PFMX4.IPFM[0].IIP.Imidblk.Imid_t.Imid[0].Ihvdisch.NH0_2[8].MN9999', in `NCH_HV_133':`PFMX4.IPFM[0].IIP.Imidblk.Imid_t.Imid[0].Ihvdisch.NH0_2[8]', in `hvdisch':`PFMX4.IPFM[0].IIP.Imidblk.Imid_t.Imid[0].Ihvdisch', in `mid2m_ref':`PFMX4.IPFM[0].IIP.Imidblk.Imid_t.Imid[0]', in `mid4m_ref':`PFMX4.IPFM[0].IIP.Imidblk.Imid_t', in `midblk':`PFMX4.IPFM[0].IIP.Imidblk', in `pfm_328ti64kx144_v1a0_IP':`PFMX4.IPFM[0].IIP', in `pfm_328ti64kx144_v1a0':`PFMX4.IPFM[0]', in `tc_4xpfm_1xbias_v1a0':`PFMX4', during hierarchy flattening.
    WARNING (SFE-101): "/iplicense/cad/technology/esf3-28tid/opus61/latest/models/spectre/latest/spec/magb4n.nch_hv_133.scs" 93: Parameter 'bv_enable' has been ignored because it has been assigned to instance PFMX4.IPFM[0].IIP.Imidblk.Imid_t.Imid[0].Ihvdisch.NH0_2[8].MN9999.NCH_HV_133_T28_mod of master 'bsim4'; however, it has not been defined for 'bsim4'. Specify a valid parameter and rerun the simulation.
Warning from spectre in `NCH_HV_133_T28':`PFMX4.IPFM[0].IIP.Imidblk.Imid_t.Imid[0].Ihvdisch.NH1_0[1]_turbo_m2.MN9999', in `NCH_HV_133':`PFMX4.IPFM[0].IIP.Imidblk.Imid_t.Imid[0].Ihvdisch.NH1_0[1]_turbo_m2', in `hvdisch':`PFMX4.IPFM[0].IIP.Imidblk.Imid_t.Imid[0].Ihvdisch', in `mid2m_ref':`PFMX4.IPFM[0].IIP.Imidblk.Imid_t.Imid[0]', in `mid4m_ref':`PFMX4.IPFM[0].IIP.Imidblk.Imid_t', in `midblk':`PFMX4.IPFM[0].IIP.Imidblk', in `pfm_328ti64kx144_v1a0_IP':`PFMX4.IPFM[0].IIP', in `pfm_328ti64kx144_v1a0':`PFMX4.IPFM[0]', in `tc_4xpfm_1xbias_v1a0':`PFMX4', during hierarchy flattening.
    WARNING (SFE-101): "/iplicense/cad/technology/esf3-28tid/opus61/latest/models/spectre/latest/spec/magb4n.nch_hv_133.scs" 93: Parameter 'bv_enable' has been ignored because it has been assigned to instance PFMX4.IPFM[0].IIP.Imidblk.Imid_t.Imid[0].Ihvdisch.NH1_0[1]_turbo_m2.MN9999.NCH_HV_133_T28_mod of master 'bsim4'; however, it has not been defined for 'bsim4'. Specify a valid parameter and rerun the simulation.
Warning from spectre in `NCH_5V_131_T28':`PFMX4.IPFM[0].IIP.Imidblk.Imid_t.Imid[0].Ihvdisch.NHM1[1].MN9999', in `NCH_5V_131':`PFMX4.IPFM[0].IIP.Imidblk.Imid_t.Imid[0].Ihvdisch.NHM1[1]', in `hvdisch':`PFMX4.IPFM[0].IIP.Imidblk.Imid_t.Imid[0].Ihvdisch', in `mid2m_ref':`PFMX4.IPFM[0].IIP.Imidblk.Imid_t.Imid[0]', in `mid4m_ref':`PFMX4.IPFM[0].IIP.Imidblk.Imid_t', in `midblk':`PFMX4.IPFM[0].IIP.Imidblk', in `pfm_328ti64kx144_v1a0_IP':`PFMX4.IPFM[0].IIP', in `pfm_328ti64kx144_v1a0':`PFMX4.IPFM[0]', in `tc_4xpfm_1xbias_v1a0':`PFMX4', during hierarchy flattening.
    WARNING (SFE-101): "/iplicense/cad/technology/esf3-28tid/opus61/latest/models/spectre/latest/spec/magb4n.nch_5v_131.scs" 86: Parameter 'bv_enable' has been ignored because it has been assigned to instance PFMX4.IPFM[0].IIP.Imidblk.Imid_t.Imid[0].Ihvdisch.NHM1[1].MN9999.NCH_5V_131_T28_mod of master 'bsim4'; however, it has not been defined for 'bsim4'. Specify a valid parameter and rerun the simulation.
Warning from spectre in `NCH_HV_LVT_PBASY_149_T28':`PFMX4.IPFM[0].IIP.Imidblk.Imid_t.Imid[0].Ihvdisch.NHZCAS.MN9999', in `NCH_HV_LVT_PBASY_149':`PFMX4.IPFM[0].IIP.Imidblk.Imid_t.Imid[0].Ihvdisch.NHZCAS', in `hvdisch':`PFMX4.IPFM[0].IIP.Imidblk.Imid_t.Imid[0].Ihvdisch', in `mid2m_ref':`PFMX4.IPFM[0].IIP.Imidblk.Imid_t.Imid[0]', in `mid4m_ref':`PFMX4.IPFM[0].IIP.Imidblk.Imid_t', in `midblk':`PFMX4.IPFM[0].IIP.Imidblk', in `pfm_328ti64kx144_v1a0_IP':`PFMX4.IPFM[0].IIP', in `pfm_328ti64kx144_v1a0':`PFMX4.IPFM[0]', in `tc_4xpfm_1xbias_v1a0':`PFMX4', during hierarchy flattening.
    WARNING (SFE-101): "/iplicense/cad/technology/esf3-28tid/opus61/latest/models/spectre/latest/spec/magb4n.nch_hv_lvt_pbasy_149.scs" 91: Parameter 'bv_enable' has been ignored because it has been assigned to instance PFMX4.IPFM[0].IIP.Imidblk.Imid_t.Imid[0].Ihvdisch.NHZCAS.MN9999.NCH_HV_LVT_PBASY_149_T28_mod of master 'bsim4'; however, it has not been defined for 'bsim4'. Specify a valid parameter and rerun the simulation.
Warning from spectre in `NCH_5V_LVT_147_T28':`PFMX4.IPFM[0].IIP.Imidblk.Imid_t.Imid[0].Ihvdisch.NHZMCAS[1].MN9999', in `NCH_5V_LVT_147':`PFMX4.IPFM[0].IIP.Imidblk.Imid_t.Imid[0].Ihvdisch.NHZMCAS[1]', in `hvdisch':`PFMX4.IPFM[0].IIP.Imidblk.Imid_t.Imid[0].Ihvdisch', in `mid2m_ref':`PFMX4.IPFM[0].IIP.Imidblk.Imid_t.Imid[0]', in `mid4m_ref':`PFMX4.IPFM[0].IIP.Imidblk.Imid_t', in `midblk':`PFMX4.IPFM[0].IIP.Imidblk', in `pfm_328ti64kx144_v1a0_IP':`PFMX4.IPFM[0].IIP', in `pfm_328ti64kx144_v1a0':`PFMX4.IPFM[0]', in `tc_4xpfm_1xbias_v1a0':`PFMX4', during hierarchy flattening.
    WARNING (SFE-101): "/iplicense/cad/technology/esf3-28tid/opus61/latest/models/spectre/latest/spec/magb4n.nch_5v_lvt_147.scs" 87: Parameter 'bv_enable' has been ignored because it has been assigned to instance PFMX4.IPFM[0].IIP.Imidblk.Imid_t.Imid[0].Ihvdisch.NHZMCAS[1].MN9999.NCH_5V_LVT_147_T28_mod of master 'bsim4'; however, it has not been defined for 'bsim4'. Specify a valid parameter and rerun the simulation.
Warning from spectre in `PCH_5V_176_T28':`PFMX4.IPFM[0].IIP.Imidblk.Imid_t.Imid[0].Ivsl_sw[1].PHVSL.MP9999', in `PCH_5V_176':`PFMX4.IPFM[0].IIP.Imidblk.Imid_t.Imid[0].Ivsl_sw[1].PHVSL', in `vsl_sw':`PFMX4.IPFM[0].IIP.Imidblk.Imid_t.Imid[0].Ivsl_sw[1]', in `mid2m_ref':`PFMX4.IPFM[0].IIP.Imidblk.Imid_t.Imid[0]', in `mid4m_ref':`PFMX4.IPFM[0].IIP.Imidblk.Imid_t', in `midblk':`PFMX4.IPFM[0].IIP.Imidblk', in `pfm_328ti64kx144_v1a0_IP':`PFMX4.IPFM[0].IIP', in `pfm_328ti64kx144_v1a0':`PFMX4.IPFM[0]', in `tc_4xpfm_1xbias_v1a0':`PFMX4', during hierarchy flattening.
    WARNING (SFE-101): "/iplicense/cad/technology/esf3-28tid/opus61/latest/models/spectre/latest/spec/magb4n.pch_5v_176.scs" 88: Parameter 'bv_enable' has been ignored because it has been assigned to instance PFMX4.IPFM[0].IIP.Imidblk.Imid_t.Imid[0].Ivsl_sw[1].PHVSL.MP9999.PCH_5V_176_T28_mod of master 'bsim4'; however, it has not been defined for 'bsim4'. Specify a valid parameter and rerun the simulation.
Warning from spectre in `PCH_5V_176_T28':`PFMX4.IPFM[0].IIP.Imidblk.Imid_t.Imid[0].Ivsl_sw[1].PHVSLFB.MP9999', in `PCH_5V_176':`PFMX4.IPFM[0].IIP.Imidblk.Imid_t.Imid[0].Ivsl_sw[1].PHVSLFB', in `vsl_sw':`PFMX4.IPFM[0].IIP.Imidblk.Imid_t.Imid[0].Ivsl_sw[1]', in `mid2m_ref':`PFMX4.IPFM[0].IIP.Imidblk.Imid_t.Imid[0]', in `mid4m_ref':`PFMX4.IPFM[0].IIP.Imidblk.Imid_t', in `midblk':`PFMX4.IPFM[0].IIP.Imidblk', in `pfm_328ti64kx144_v1a0_IP':`PFMX4.IPFM[0].IIP', in `pfm_328ti64kx144_v1a0':`PFMX4.IPFM[0]', in `tc_4xpfm_1xbias_v1a0':`PFMX4', during hierarchy flattening.
    WARNING (SFE-101): "/iplicense/cad/technology/esf3-28tid/opus61/latest/models/spectre/latest/spec/magb4n.pch_5v_176.scs" 88: Parameter 'bv_enable' has been ignored because it has been assigned to instance PFMX4.IPFM[0].IIP.Imidblk.Imid_t.Imid[0].Ivsl_sw[1].PHVSLFB.MP9999.PCH_5V_176_T28_mod of master 'bsim4'; however, it has not been defined for 'bsim4'. Specify a valid parameter and rerun the simulation.
Warning from spectre in `NCH_5V_131_T28':`PFMX4.IPFM[0].IIP.Imidblk.Imid_t.Imid[0].Ivsl_sw[1].NHVSL.MN9999', in `NCH_5V_131':`PFMX4.IPFM[0].IIP.Imidblk.Imid_t.Imid[0].Ivsl_sw[1].NHVSL', in `vsl_sw':`PFMX4.IPFM[0].IIP.Imidblk.Imid_t.Imid[0].Ivsl_sw[1]', in `mid2m_ref':`PFMX4.IPFM[0].IIP.Imidblk.Imid_t.Imid[0]', in `mid4m_ref':`PFMX4.IPFM[0].IIP.Imidblk.Imid_t', in `midblk':`PFMX4.IPFM[0].IIP.Imidblk', in `pfm_328ti64kx144_v1a0_IP':`PFMX4.IPFM[0].IIP', in `pfm_328ti64kx144_v1a0':`PFMX4.IPFM[0]', in `tc_4xpfm_1xbias_v1a0':`PFMX4', during hierarchy flattening.
    WARNING (SFE-101): "/iplicense/cad/technology/esf3-28tid/opus61/latest/models/spectre/latest/spec/magb4n.nch_5v_131.scs" 86: Parameter 'bv_enable' has been ignored because it has been assigned to instance PFMX4.IPFM[0].IIP.Imidblk.Imid_t.Imid[0].Ivsl_sw[1].NHVSL.MN9999.NCH_5V_131_T28_mod of master 'bsim4'; however, it has not been defined for 'bsim4'. Specify a valid parameter and rerun the simulation.
Warning from spectre in `PCH_HV_177_T28':`PFMX4.IPFM[0].IIP.Imidblk.Imid_t.Imid[0].Ixblk[0].Invrdn[1].Ihvdec.PHCG[7].MP9999', in `PCH_HV_177':`PFMX4.IPFM[0].IIP.Imidblk.Imid_t.Imid[0].Ixblk[0].Invrdn[1].Ihvdec.PHCG[7]', in `hvdec':`PFMX4.IPFM[0].IIP.Imidblk.Imid_t.Imid[0].Ixblk[0].Invrdn[1].Ihvdec', in `sub_sector':`PFMX4.IPFM[0].IIP.Imidblk.Imid_t.Imid[0].Ixblk[0].Invrdn[1]', in `xblk_ref':`PFMX4.IPFM[0].IIP.Imidblk.Imid_t.Imid[0].Ixblk[0]', in `mid2m_ref':`PFMX4.IPFM[0].IIP.Imidblk.Imid_t.Imid[0]', in `mid4m_ref':`PFMX4.IPFM[0].IIP.Imidblk.Imid_t', in `midblk':`PFMX4.IPFM[0].IIP.Imidblk', in `pfm_328ti64kx144_v1a0_IP':`PFMX4.IPFM[0].IIP', in `pfm_328ti64kx144_v1a0':`PFMX4.IPFM[0]', in `tc_4xpfm_1xbias_v1a0':`PFMX4', during hierarchy flattening.
    WARNING (SFE-101): "/iplicense/cad/technology/esf3-28tid/opus61/latest/models/spectre/latest/spec/magb4n.pch_hv_177.scs" 92: Parameter 'bv_enable' has been ignored because it has been assigned to instance PFMX4.IPFM[0].IIP.Imidblk.Imid_t.Imid[0].Ixblk[0].Invrdn[1].Ihvdec.PHCG[7].MP9999.PCH_HV_177_T28_mod of master 'bsim4'; however, it has not been defined for 'bsim4'. Specify a valid parameter and rerun the simulation.
Warning from spectre in `PCH_HV_177_T28':`PFMX4.IPFM[0].IIP.Imidblk.Imid_t.Imid[0].Ixblk[0].Invrdn[1].Ihvdec.PHS_L.MP9999', in `PCH_HV_177':`PFMX4.IPFM[0].IIP.Imidblk.Imid_t.Imid[0].Ixblk[0].Invrdn[1].Ihvdec.PHS_L', in `hvdec':`PFMX4.IPFM[0].IIP.Imidblk.Imid_t.Imid[0].Ixblk[0].Invrdn[1].Ihvdec', in `sub_sector':`PFMX4.IPFM[0].IIP.Imidblk.Imid_t.Imid[0].Ixblk[0].Invrdn[1]', in `xblk_ref':`PFMX4.IPFM[0].IIP.Imidblk.Imid_t.Imid[0].Ixblk[0]', in `mid2m_ref':`PFMX4.IPFM[0].IIP.Imidblk.Imid_t.Imid[0]', in `mid4m_ref':`PFMX4.IPFM[0].IIP.Imidblk.Imid_t', in `midblk':`PFMX4.IPFM[0].IIP.Imidblk', in `pfm_328ti64kx144_v1a0_IP':`PFMX4.IPFM[0].IIP', in `pfm_328ti64kx144_v1a0':`PFMX4.IPFM[0]', in `tc_4xpfm_1xbias_v1a0':`PFMX4', during hierarchy flattening.
    WARNING (SFE-101): "/iplicense/cad/technology/esf3-28tid/opus61/latest/models/spectre/latest/spec/magb4n.pch_hv_177.scs" 92: Parameter 'bv_enable' has been ignored because it has been assigned to instance PFMX4.IPFM[0].IIP.Imidblk.Imid_t.Imid[0].Ixblk[0].Invrdn[1].Ihvdec.PHS_L.MP9999.PCH_HV_177_T28_mod of master 'bsim4'; however, it has not been defined for 'bsim4'. Specify a valid parameter and rerun the simulation.
Warning from spectre in `NCH_HV_PBASY_148_T28':`PFMX4.IPFM[0].IIP.Imidblk.Imid_t.Imid[0].Ixblk[0].Invrdn[1].Ihvdec.NHEG_CAS.MN9999', in `NCH_HV_PBASY_148':`PFMX4.IPFM[0].IIP.Imidblk.Imid_t.Imid[0].Ixblk[0].Invrdn[1].Ihvdec.NHEG_CAS', in `hvdec':`PFMX4.IPFM[0].IIP.Imidblk.Imid_t.Imid[0].Ixblk[0].Invrdn[1].Ihvdec', in `sub_sector':`PFMX4.IPFM[0].IIP.Imidblk.Imid_t.Imid[0].Ixblk[0].Invrdn[1]', in `xblk_ref':`PFMX4.IPFM[0].IIP.Imidblk.Imid_t.Imid[0].Ixblk[0]', in `mid2m_ref':`PFMX4.IPFM[0].IIP.Imidblk.Imid_t.Imid[0]', in `mid4m_ref':`PFMX4.IPFM[0].IIP.Imidblk.Imid_t', in `midblk':`PFMX4.IPFM[0].IIP.Imidblk', in `pfm_328ti64kx144_v1a0_IP':`PFMX4.IPFM[0].IIP', in `pfm_328ti64kx144_v1a0':`PFMX4.IPFM[0]', in `tc_4xpfm_1xbias_v1a0':`PFMX4', during hierarchy flattening.
    WARNING (SFE-101): "/iplicense/cad/technology/esf3-28tid/opus61/latest/models/spectre/latest/spec/magb4n.nch_hv_pbasy_148.scs" 90: Parameter 'bv_enable' has been ignored because it has been assigned to instance PFMX4.IPFM[0].IIP.Imidblk.Imid_t.Imid[0].Ixblk[0].Invrdn[1].Ihvdec.NHEG_CAS.MN9999.NCH_HV_PBASY_148_T28_mod of master 'bsim4'; however, it has not been defined for 'bsim4'. Specify a valid parameter and rerun the simulation.
Warning from spectre in `NCH_HV_PBASY_148_T28':`PFMX4.IPFM[0].IIP.Imidblk.Imid_t.Imid[0].Ixblk[0].Invrdn[1].Ihvdec.NHCAS_R.MN9999', in `NCH_HV_PBASY_148':`PFMX4.IPFM[0].IIP.Imidblk.Imid_t.Imid[0].Ixblk[0].Invrdn[1].Ihvdec.NHCAS_R', in `hvdec':`PFMX4.IPFM[0].IIP.Imidblk.Imid_t.Imid[0].Ixblk[0].Invrdn[1].Ihvdec', in `sub_sector':`PFMX4.IPFM[0].IIP.Imidblk.Imid_t.Imid[0].Ixblk[0].Invrdn[1]', in `xblk_ref':`PFMX4.IPFM[0].IIP.Imidblk.Imid_t.Imid[0].Ixblk[0]', in `mid2m_ref':`PFMX4.IPFM[0].IIP.Imidblk.Imid_t.Imid[0]', in `mid4m_ref':`PFMX4.IPFM[0].IIP.Imidblk.Imid_t', in `midblk':`PFMX4.IPFM[0].IIP.Imidblk', in `pfm_328ti64kx144_v1a0_IP':`PFMX4.IPFM[0].IIP', in `pfm_328ti64kx144_v1a0':`PFMX4.IPFM[0]', in `tc_4xpfm_1xbias_v1a0':`PFMX4', during hierarchy flattening.
    WARNING (SFE-101): "/iplicense/cad/technology/esf3-28tid/opus61/latest/models/spectre/latest/spec/magb4n.nch_hv_pbasy_148.scs" 90: Parameter 'bv_enable' has been ignored because it has been assigned to instance PFMX4.IPFM[0].IIP.Imidblk.Imid_t.Imid[0].Ixblk[0].Invrdn[1].Ihvdec.NHCAS_R.MN9999.NCH_HV_PBASY_148_T28_mod of master 'bsim4'; however, it has not been defined for 'bsim4'. Specify a valid parameter and rerun the simulation.
Warning from spectre in `NCH_HV_133_T28':`PFMX4.IPFM[0].IIP.Imidblk.Imid_t.Imid[0].Ixblk[0].Invrdn[1].Ihvdec.NHCG[7].MN9999', in `NCH_HV_133':`PFMX4.IPFM[0].IIP.Imidblk.Imid_t.Imid[0].Ixblk[0].Invrdn[1].Ihvdec.NHCG[7]', in `hvdec':`PFMX4.IPFM[0].IIP.Imidblk.Imid_t.Imid[0].Ixblk[0].Invrdn[1].Ihvdec', in `sub_sector':`PFMX4.IPFM[0].IIP.Imidblk.Imid_t.Imid[0].Ixblk[0].Invrdn[1]', in `xblk_ref':`PFMX4.IPFM[0].IIP.Imidblk.Imid_t.Imid[0].Ixblk[0]', in `mid2m_ref':`PFMX4.IPFM[0].IIP.Imidblk.Imid_t.Imid[0]', in `mid4m_ref':`PFMX4.IPFM[0].IIP.Imidblk.Imid_t', in `midblk':`PFMX4.IPFM[0].IIP.Imidblk', in `pfm_328ti64kx144_v1a0_IP':`PFMX4.IPFM[0].IIP', in `pfm_328ti64kx144_v1a0':`PFMX4.IPFM[0]', in `tc_4xpfm_1xbias_v1a0':`PFMX4', during hierarchy flattening.
    WARNING (SFE-101): "/iplicense/cad/technology/esf3-28tid/opus61/latest/models/spectre/latest/spec/magb4n.nch_hv_133.scs" 93: Parameter 'bv_enable' has been ignored because it has been assigned to instance PFMX4.IPFM[0].IIP.Imidblk.Imid_t.Imid[0].Ixblk[0].Invrdn[1].Ihvdec.NHCG[7].MN9999.NCH_HV_133_T28_mod of master 'bsim4'; however, it has not been defined for 'bsim4'. Specify a valid parameter and rerun the simulation.
Warning from spectre in `NCH_5V_131_T28':`PFMX4.IPFM[0].IIP.Imidblk.Imid_t.Imid[0].Ixblk[0].Invrdn[1].Ihvdec.NHSLFB.MN9999', in `NCH_5V_131':`PFMX4.IPFM[0].IIP.Imidblk.Imid_t.Imid[0].Ixblk[0].Invrdn[1].Ihvdec.NHSLFB', in `hvdec':`PFMX4.IPFM[0].IIP.Imidblk.Imid_t.Imid[0].Ixblk[0].Invrdn[1].Ihvdec', in `sub_sector':`PFMX4.IPFM[0].IIP.Imidblk.Imid_t.Imid[0].Ixblk[0].Invrdn[1]', in `xblk_ref':`PFMX4.IPFM[0].IIP.Imidblk.Imid_t.Imid[0].Ixblk[0]', in `mid2m_ref':`PFMX4.IPFM[0].IIP.Imidblk.Imid_t.Imid[0]', in `mid4m_ref':`PFMX4.IPFM[0].IIP.Imidblk.Imid_t', in `midblk':`PFMX4.IPFM[0].IIP.Imidblk', in `pfm_328ti64kx144_v1a0_IP':`PFMX4.IPFM[0].IIP', in `pfm_328ti64kx144_v1a0':`PFMX4.IPFM[0]', in `tc_4xpfm_1xbias_v1a0':`PFMX4', during hierarchy flattening.
    WARNING (SFE-101): "/iplicense/cad/technology/esf3-28tid/opus61/latest/models/spectre/latest/spec/magb4n.nch_5v_131.scs" 86: Parameter 'bv_enable' has been ignored because it has been assigned to instance PFMX4.IPFM[0].IIP.Imidblk.Imid_t.Imid[0].Ixblk[0].Invrdn[1].Ihvdec.NHSLFB.MN9999.NCH_5V_131_T28_mod of master 'bsim4'; however, it has not been defined for 'bsim4'. Specify a valid parameter and rerun the simulation.
Warning from spectre in `NCH_5V_131_T28':`PFMX4.IPFM[0].IIP.Imidblk.Imid_t.Imid[0].Ixblk[0].Invrdn[1].Ihvdec.NHSL.MN9999', in `NCH_5V_131':`PFMX4.IPFM[0].IIP.Imidblk.Imid_t.Imid[0].Ixblk[0].Invrdn[1].Ihvdec.NHSL', in `hvdec':`PFMX4.IPFM[0].IIP.Imidblk.Imid_t.Imid[0].Ixblk[0].Invrdn[1].Ihvdec', in `sub_sector':`PFMX4.IPFM[0].IIP.Imidblk.Imid_t.Imid[0].Ixblk[0].Invrdn[1]', in `xblk_ref':`PFMX4.IPFM[0].IIP.Imidblk.Imid_t.Imid[0].Ixblk[0]', in `mid2m_ref':`PFMX4.IPFM[0].IIP.Imidblk.Imid_t.Imid[0]', in `mid4m_ref':`PFMX4.IPFM[0].IIP.Imidblk.Imid_t', in `midblk':`PFMX4.IPFM[0].IIP.Imidblk', in `pfm_328ti64kx144_v1a0_IP':`PFMX4.IPFM[0].IIP', in `pfm_328ti64kx144_v1a0':`PFMX4.IPFM[0]', in `tc_4xpfm_1xbias_v1a0':`PFMX4', during hierarchy flattening.
    WARNING (SFE-101): "/iplicense/cad/technology/esf3-28tid/opus61/latest/models/spectre/latest/spec/magb4n.nch_5v_131.scs" 86: Parameter 'bv_enable' has been ignored because it has been assigned to instance PFMX4.IPFM[0].IIP.Imidblk.Imid_t.Imid[0].Ixblk[0].Invrdn[1].Ihvdec.NHSL.MN9999.NCH_5V_131_T28_mod of master 'bsim4'; however, it has not been defined for 'bsim4'. Specify a valid parameter and rerun the simulation.
Warning from spectre in `NCH_5V_131_T28':`PFMX4.IPFM[0].IIP.Imidblk.Imid_t.Imid[0].Ixblk[0].Irefsec.Ihvdec.NHSLFB.MN9999', in `NCH_5V_131':`PFMX4.IPFM[0].IIP.Imidblk.Imid_t.Imid[0].Ixblk[0].Irefsec.Ihvdec.NHSLFB', in `hvdecx':`PFMX4.IPFM[0].IIP.Imidblk.Imid_t.Imid[0].Ixblk[0].Irefsec.Ihvdec', in `sub_sectorx':`PFMX4.IPFM[0].IIP.Imidblk.Imid_t.Imid[0].Ixblk[0].Irefsec', in `xblk_ref':`PFMX4.IPFM[0].IIP.Imidblk.Imid_t.Imid[0].Ixblk[0]', in `mid2m_ref':`PFMX4.IPFM[0].IIP.Imidblk.Imid_t.Imid[0]', in `mid4m_ref':`PFMX4.IPFM[0].IIP.Imidblk.Imid_t', in `midblk':`PFMX4.IPFM[0].IIP.Imidblk', in `pfm_328ti64kx144_v1a0_IP':`PFMX4.IPFM[0].IIP', in `pfm_328ti64kx144_v1a0':`PFMX4.IPFM[0]', in `tc_4xpfm_1xbias_v1a0':`PFMX4', during hierarchy flattening.
    WARNING (SFE-101): "/iplicense/cad/technology/esf3-28tid/opus61/latest/models/spectre/latest/spec/magb4n.nch_5v_131.scs" 86: Parameter 'bv_enable' has been ignored because it has been assigned to instance PFMX4.IPFM[0].IIP.Imidblk.Imid_t.Imid[0].Ixblk[0].Irefsec.Ihvdec.NHSLFB.MN9999.NCH_5V_131_T28_mod of master 'bsim4'; however, it has not been defined for 'bsim4'. Specify a valid parameter and rerun the simulation.
Warning from spectre in `NCH_5V_131_T28':`PFMX4.IPFM[0].IIP.Imidblk.Imid_t.Imid[0].Ixblk[0].Irefsec.Ihvdec.NHSL.MN9999', in `NCH_5V_131':`PFMX4.IPFM[0].IIP.Imidblk.Imid_t.Imid[0].Ixblk[0].Irefsec.Ihvdec.NHSL', in `hvdecx':`PFMX4.IPFM[0].IIP.Imidblk.Imid_t.Imid[0].Ixblk[0].Irefsec.Ihvdec', in `sub_sectorx':`PFMX4.IPFM[0].IIP.Imidblk.Imid_t.Imid[0].Ixblk[0].Irefsec', in `xblk_ref':`PFMX4.IPFM[0].IIP.Imidblk.Imid_t.Imid[0].Ixblk[0]', in `mid2m_ref':`PFMX4.IPFM[0].IIP.Imidblk.Imid_t.Imid[0]', in `mid4m_ref':`PFMX4.IPFM[0].IIP.Imidblk.Imid_t', in `midblk':`PFMX4.IPFM[0].IIP.Imidblk', in `pfm_328ti64kx144_v1a0_IP':`PFMX4.IPFM[0].IIP', in `pfm_328ti64kx144_v1a0':`PFMX4.IPFM[0]', in `tc_4xpfm_1xbias_v1a0':`PFMX4', during hierarchy flattening.
    WARNING (SFE-101): "/iplicense/cad/technology/esf3-28tid/opus61/latest/models/spectre/latest/spec/magb4n.nch_5v_131.scs" 86: Parameter 'bv_enable' has been ignored because it has been assigned to instance PFMX4.IPFM[0].IIP.Imidblk.Imid_t.Imid[0].Ixblk[0].Irefsec.Ihvdec.NHSL.MN9999.NCH_5V_131_T28_mod of master 'bsim4'; however, it has not been defined for 'bsim4'. Specify a valid parameter and rerun the simulation.
Warning from spectre in `NCH_HV_LVT_134_T28':`PFMX4.IBIAS.Itop_hv.Ixver_clamp.NHZ0.MN9999', in `NCH_HV_LVT_134':`PFMX4.IBIAS.Itop_hv.Ixver_clamp.NHZ0', in `hvxver_clamp':`PFMX4.IBIAS.Itop_hv.Ixver_clamp', in `top_hv':`PFMX4.IBIAS.Itop_hv', in `bias_328ti64kx144_v1a0':`PFMX4.IBIAS', in `tc_4xpfm_1xbias_v1a0':`PFMX4', during hierarchy flattening.
    WARNING (SFE-101): "/iplicense/cad/technology/esf3-28tid/opus61/latest/models/spectre/latest/spec/magb4n.nch_hv_lvt_134.scs" 95: Parameter 'bv_enable' has been ignored because it has been assigned to instance PFMX4.IBIAS.Itop_hv.Ixver_clamp.NHZ0.MN9999.NCH_HV_LVT_134_T28_mod of master 'bsim4'; however, it has not been defined for 'bsim4'. Specify a valid parameter and rerun the simulation.
Warning from spectre in `PCH_HV_177_T28':`PFMX4.IBIAS.Itop_hv.Ixver_clamp.PH1.MP9999', in `PCH_HV_177':`PFMX4.IBIAS.Itop_hv.Ixver_clamp.PH1', in `hvxver_clamp':`PFMX4.IBIAS.Itop_hv.Ixver_clamp', in `top_hv':`PFMX4.IBIAS.Itop_hv', in `bias_328ti64kx144_v1a0':`PFMX4.IBIAS', in `tc_4xpfm_1xbias_v1a0':`PFMX4', during hierarchy flattening.
    WARNING (SFE-101): "/iplicense/cad/technology/esf3-28tid/opus61/latest/models/spectre/latest/spec/magb4n.pch_hv_177.scs" 92: Parameter 'bv_enable' has been ignored because it has been assigned to instance PFMX4.IBIAS.Itop_hv.Ixver_clamp.PH1.MP9999.PCH_HV_177_T28_mod of master 'bsim4'; however, it has not been defined for 'bsim4'. Specify a valid parameter and rerun the simulation.
Warning from spectre in `PCH_5V_176_T28':`PFMX4.IBIAS.Itop_hv.Ixver_clamp.PHM0.MP9999', in `PCH_5V_176':`PFMX4.IBIAS.Itop_hv.Ixver_clamp.PHM0', in `hvxver_clamp':`PFMX4.IBIAS.Itop_hv.Ixver_clamp', in `top_hv':`PFMX4.IBIAS.Itop_hv', in `bias_328ti64kx144_v1a0':`PFMX4.IBIAS', in `tc_4xpfm_1xbias_v1a0':`PFMX4', during hierarchy flattening.
    WARNING (SFE-101): "/iplicense/cad/technology/esf3-28tid/opus61/latest/models/spectre/latest/spec/magb4n.pch_5v_176.scs" 88: Parameter 'bv_enable' has been ignored because it has been assigned to instance PFMX4.IBIAS.Itop_hv.Ixver_clamp.PHM0.MP9999.PCH_5V_176_T28_mod of master 'bsim4'; however, it has not been defined for 'bsim4'. Specify a valid parameter and rerun the simulation.
Warning from spectre in `NCH_HV_LVT_134_T28':`PFMX4.IBIAS.Itop_hv.NHZCAP0_1_turbo_m2.MN9999', in `NCH_HV_LVT_134':`PFMX4.IBIAS.Itop_hv.NHZCAP0_1_turbo_m2', in `top_hv':`PFMX4.IBIAS.Itop_hv', in `bias_328ti64kx144_v1a0':`PFMX4.IBIAS', in `tc_4xpfm_1xbias_v1a0':`PFMX4', during hierarchy flattening.
    WARNING (SFE-101): "/iplicense/cad/technology/esf3-28tid/opus61/latest/models/spectre/latest/spec/magb4n.nch_hv_lvt_134.scs" 95: Parameter 'bv_enable' has been ignored because it has been assigned to instance PFMX4.IBIAS.Itop_hv.NHZCAP0_1_turbo_m2.MN9999.NCH_HV_LVT_134_T28_mod of master 'bsim4'; however, it has not been defined for 'bsim4'. Specify a valid parameter and rerun the simulation.
Warning from spectre in `NCH_HV_PBASY_148_T28':`PFMX4.IBIAS.Itop_hv.Ixver_vsl.NHPBA.MN9999', in `NCH_HV_PBASY_148':`PFMX4.IBIAS.Itop_hv.Ixver_vsl.NHPBA', in `hvxver_vsl':`PFMX4.IBIAS.Itop_hv.Ixver_vsl', in `top_hv':`PFMX4.IBIAS.Itop_hv', in `bias_328ti64kx144_v1a0':`PFMX4.IBIAS', in `tc_4xpfm_1xbias_v1a0':`PFMX4', during hierarchy flattening.
    WARNING (SFE-101): "/iplicense/cad/technology/esf3-28tid/opus61/latest/models/spectre/latest/spec/magb4n.nch_hv_pbasy_148.scs" 90: Parameter 'bv_enable' has been ignored because it has been assigned to instance PFMX4.IBIAS.Itop_hv.Ixver_vsl.NHPBA.MN9999.NCH_HV_PBASY_148_T28_mod of master 'bsim4'; however, it has not been defined for 'bsim4'. Specify a valid parameter and rerun the simulation.
Warning from spectre in `NCH_HV_LVT_134_T28':`PFMX4.IBIAS.Itop_hv.Ixver_vep.NHZCAS1.MN9999', in `NCH_HV_LVT_134':`PFMX4.IBIAS.Itop_hv.Ixver_vep.NHZCAS1', in `hvxver_vep':`PFMX4.IBIAS.Itop_hv.Ixver_vep', in `top_hv':`PFMX4.IBIAS.Itop_hv', in `bias_328ti64kx144_v1a0':`PFMX4.IBIAS', in `tc_4xpfm_1xbias_v1a0':`PFMX4', during hierarchy flattening.
    WARNING (SFE-101): "/iplicense/cad/technology/esf3-28tid/opus61/latest/models/spectre/latest/spec/magb4n.nch_hv_lvt_134.scs" 95: Parameter 'bv_enable' has been ignored because it has been assigned to instance PFMX4.IBIAS.Itop_hv.Ixver_vep.NHZCAS1.MN9999.NCH_HV_LVT_134_T28_mod of master 'bsim4'; however, it has not been defined for 'bsim4'. Specify a valid parameter and rerun the simulation.
Warning from spectre in `NCH_HV_LVT_134_T28':`PFMX4.IBIAS.Itop_hv.Ixver_vep.NHZISO.MN9999', in `NCH_HV_LVT_134':`PFMX4.IBIAS.Itop_hv.Ixver_vep.NHZISO', in `hvxver_vep':`PFMX4.IBIAS.Itop_hv.Ixver_vep', in `top_hv':`PFMX4.IBIAS.Itop_hv', in `bias_328ti64kx144_v1a0':`PFMX4.IBIAS', in `tc_4xpfm_1xbias_v1a0':`PFMX4', during hierarchy flattening.
    WARNING (SFE-101): "/iplicense/cad/technology/esf3-28tid/opus61/latest/models/spectre/latest/spec/magb4n.nch_hv_lvt_134.scs" 95: Parameter 'bv_enable' has been ignored because it has been assigned to instance PFMX4.IBIAS.Itop_hv.Ixver_vep.NHZISO.MN9999.NCH_HV_LVT_134_T28_mod of master 'bsim4'; however, it has not been defined for 'bsim4'. Specify a valid parameter and rerun the simulation.
Warning from spectre in `PCH_HV_177_T28':`PFMX4.IBIAS.Itop_hv.Ixver_vep.PHEXT.MP9999', in `PCH_HV_177':`PFMX4.IBIAS.Itop_hv.Ixver_vep.PHEXT', in `hvxver_vep':`PFMX4.IBIAS.Itop_hv.Ixver_vep', in `top_hv':`PFMX4.IBIAS.Itop_hv', in `bias_328ti64kx144_v1a0':`PFMX4.IBIAS', in `tc_4xpfm_1xbias_v1a0':`PFMX4', during hierarchy flattening.
    WARNING (SFE-101): "/iplicense/cad/technology/esf3-28tid/opus61/latest/models/spectre/latest/spec/magb4n.pch_hv_177.scs" 92: Parameter 'bv_enable' has been ignored because it has been assigned to instance PFMX4.IBIAS.Itop_hv.Ixver_vep.PHEXT.MP9999.PCH_HV_177_T28_mod of master 'bsim4'; however, it has not been defined for 'bsim4'. Specify a valid parameter and rerun the simulation.
Warning from spectre in `NCH_5V_LVT_147_T28':`PFMX4.IBIAS.Itop_hv.Icpump_all.Ivsl_cpump.Ipump_unit[0].CPUMPB2.MN9999', in `NCH_5V_LVT_147':`PFMX4.IBIAS.Itop_hv.Icpump_all.Ivsl_cpump.Ipump_unit[0].CPUMPB2', in `vsl_pump_unitx2':`PFMX4.IBIAS.Itop_hv.Icpump_all.Ivsl_cpump.Ipump_unit[0]', in `vsl_cpump':`PFMX4.IBIAS.Itop_hv.Icpump_all.Ivsl_cpump', in `cpump_all':`PFMX4.IBIAS.Itop_hv.Icpump_all', in `top_hv':`PFMX4.IBIAS.Itop_hv', in `bias_328ti64kx144_v1a0':`PFMX4.IBIAS', in `tc_4xpfm_1xbias_v1a0':`PFMX4', during hierarchy flattening.
    WARNING (SFE-101): "/iplicense/cad/technology/esf3-28tid/opus61/latest/models/spectre/latest/spec/magb4n.nch_5v_lvt_147.scs" 87: Parameter 'bv_enable' has been ignored because it has been assigned to instance PFMX4.IBIAS.Itop_hv.Icpump_all.Ivsl_cpump.Ipump_unit[0].CPUMPB2.MN9999.NCH_5V_LVT_147_T28_mod of master 'bsim4'; however, it has not been defined for 'bsim4'. Specify a valid parameter and rerun the simulation.
Warning from spectre in `NCH_5V_LVT_147_T28':`PFMX4.IBIAS.Itop_hv.Icpump_all.Ivsl_cpump.Ipump_unit[0].CPUMPA1.MN9999', in `NCH_5V_LVT_147':`PFMX4.IBIAS.Itop_hv.Icpump_all.Ivsl_cpump.Ipump_unit[0].CPUMPA1', in `vsl_pump_unitx2':`PFMX4.IBIAS.Itop_hv.Icpump_all.Ivsl_cpump.Ipump_unit[0]', in `vsl_cpump':`PFMX4.IBIAS.Itop_hv.Icpump_all.Ivsl_cpump', in `cpump_all':`PFMX4.IBIAS.Itop_hv.Icpump_all', in `top_hv':`PFMX4.IBIAS.Itop_hv', in `bias_328ti64kx144_v1a0':`PFMX4.IBIAS', in `tc_4xpfm_1xbias_v1a0':`PFMX4', during hierarchy flattening.
    WARNING (SFE-101): "/iplicense/cad/technology/esf3-28tid/opus61/latest/models/spectre/latest/spec/magb4n.nch_5v_lvt_147.scs" 87: Parameter 'bv_enable' has been ignored because it has been assigned to instance PFMX4.IBIAS.Itop_hv.Icpump_all.Ivsl_cpump.Ipump_unit[0].CPUMPA1.MN9999.NCH_5V_LVT_147_T28_mod of master 'bsim4'; however, it has not been defined for 'bsim4'. Specify a valid parameter and rerun the simulation.
Warning from spectre in `NCH_5V_LVT_147_T28':`PFMX4.IBIAS.Itop_hv.Icpump_all.Ivsl_cpump.Ipump_unit[0].NCASB.MN9999', in `NCH_5V_LVT_147':`PFMX4.IBIAS.Itop_hv.Icpump_all.Ivsl_cpump.Ipump_unit[0].NCASB', in `vsl_pump_unitx2':`PFMX4.IBIAS.Itop_hv.Icpump_all.Ivsl_cpump.Ipump_unit[0]', in `vsl_cpump':`PFMX4.IBIAS.Itop_hv.Icpump_all.Ivsl_cpump', in `cpump_all':`PFMX4.IBIAS.Itop_hv.Icpump_all', in `top_hv':`PFMX4.IBIAS.Itop_hv', in `bias_328ti64kx144_v1a0':`PFMX4.IBIAS', in `tc_4xpfm_1xbias_v1a0':`PFMX4', during hierarchy flattening.
    WARNING (SFE-101): "/iplicense/cad/technology/esf3-28tid/opus61/latest/models/spectre/latest/spec/magb4n.nch_5v_lvt_147.scs" 87: Parameter 'bv_enable' has been ignored because it has been assigned to instance PFMX4.IBIAS.Itop_hv.Icpump_all.Ivsl_cpump.Ipump_unit[0].NCASB.MN9999.NCH_5V_LVT_147_T28_mod of master 'bsim4'; however, it has not been defined for 'bsim4'. Specify a valid parameter and rerun the simulation.
Warning from spectre in `NCH_5V_LVT_147_T28':`PFMX4.IBIAS.Itop_hv.Icpump_all.Ivsl_cpump.Ipump_unit[0].CPUMPB0.MN9999', in `NCH_5V_LVT_147':`PFMX4.IBIAS.Itop_hv.Icpump_all.Ivsl_cpump.Ipump_unit[0].CPUMPB0', in `vsl_pump_unitx2':`PFMX4.IBIAS.Itop_hv.Icpump_all.Ivsl_cpump.Ipump_unit[0]', in `vsl_cpump':`PFMX4.IBIAS.Itop_hv.Icpump_all.Ivsl_cpump', in `cpump_all':`PFMX4.IBIAS.Itop_hv.Icpump_all', in `top_hv':`PFMX4.IBIAS.Itop_hv', in `bias_328ti64kx144_v1a0':`PFMX4.IBIAS', in `tc_4xpfm_1xbias_v1a0':`PFMX4', during hierarchy flattening.
    WARNING (SFE-101): "/iplicense/cad/technology/esf3-28tid/opus61/latest/models/spectre/latest/spec/magb4n.nch_5v_lvt_147.scs" 87: Parameter 'bv_enable' has been ignored because it has been assigned to instance PFMX4.IBIAS.Itop_hv.Icpump_all.Ivsl_cpump.Ipump_unit[0].CPUMPB0.MN9999.NCH_5V_LVT_147_T28_mod of master 'bsim4'; however, it has not been defined for 'bsim4'. Specify a valid parameter and rerun the simulation.
Warning from spectre in `NCH_5V_LVT_147_T28':`PFMX4.IBIAS.Itop_hv.Icpump_all.Ivsl_cpump.Ipump_unit[0].NBOOSTB.MN9999', in `NCH_5V_LVT_147':`PFMX4.IBIAS.Itop_hv.Icpump_all.Ivsl_cpump.Ipump_unit[0].NBOOSTB', in `vsl_pump_unitx2':`PFMX4.IBIAS.Itop_hv.Icpump_all.Ivsl_cpump.Ipump_unit[0]', in `vsl_cpump':`PFMX4.IBIAS.Itop_hv.Icpump_all.Ivsl_cpump', in `cpump_all':`PFMX4.IBIAS.Itop_hv.Icpump_all', in `top_hv':`PFMX4.IBIAS.Itop_hv', in `bias_328ti64kx144_v1a0':`PFMX4.IBIAS', in `tc_4xpfm_1xbias_v1a0':`PFMX4', during hierarchy flattening.
    WARNING (SFE-101): "/iplicense/cad/technology/esf3-28tid/opus61/latest/models/spectre/latest/spec/magb4n.nch_5v_lvt_147.scs" 87: Parameter 'bv_enable' has been ignored because it has been assigned to instance PFMX4.IBIAS.Itop_hv.Icpump_all.Ivsl_cpump.Ipump_unit[0].NBOOSTB.MN9999.NCH_5V_LVT_147_T28_mod of master 'bsim4'; however, it has not been defined for 'bsim4'. Specify a valid parameter and rerun the simulation.
Warning from spectre in `NCH_5V_LVT_147_T28':`PFMX4.IBIAS.Itop_hv.Icpump_all.Ivsl_cpump.Ipump_unit[0].CBOOSTB.MN9999', in `NCH_5V_LVT_147':`PFMX4.IBIAS.Itop_hv.Icpump_all.Ivsl_cpump.Ipump_unit[0].CBOOSTB', in `vsl_pump_unitx2':`PFMX4.IBIAS.Itop_hv.Icpump_all.Ivsl_cpump.Ipump_unit[0]', in `vsl_cpump':`PFMX4.IBIAS.Itop_hv.Icpump_all.Ivsl_cpump', in `cpump_all':`PFMX4.IBIAS.Itop_hv.Icpump_all', in `top_hv':`PFMX4.IBIAS.Itop_hv', in `bias_328ti64kx144_v1a0':`PFMX4.IBIAS', in `tc_4xpfm_1xbias_v1a0':`PFMX4', during hierarchy flattening.
    WARNING (SFE-101): "/iplicense/cad/technology/esf3-28tid/opus61/latest/models/spectre/latest/spec/magb4n.nch_5v_lvt_147.scs" 87: Parameter 'bv_enable' has been ignored because it has been assigned to instance PFMX4.IBIAS.Itop_hv.Icpump_all.Ivsl_cpump.Ipump_unit[0].CBOOSTB.MN9999.NCH_5V_LVT_147_T28_mod of master 'bsim4'; however, it has not been defined for 'bsim4'. Specify a valid parameter and rerun the simulation.
Warning from spectre in `NCH_5V_LVT_147_T28':`PFMX4.IBIAS.Itop_hv.Icpump_all.Ivsl_cpump.Ipump_unit[0].NPUMPB.MN9999', in `NCH_5V_LVT_147':`PFMX4.IBIAS.Itop_hv.Icpump_all.Ivsl_cpump.Ipump_unit[0].NPUMPB', in `vsl_pump_unitx2':`PFMX4.IBIAS.Itop_hv.Icpump_all.Ivsl_cpump.Ipump_unit[0]', in `vsl_cpump':`PFMX4.IBIAS.Itop_hv.Icpump_all.Ivsl_cpump', in `cpump_all':`PFMX4.IBIAS.Itop_hv.Icpump_all', in `top_hv':`PFMX4.IBIAS.Itop_hv', in `bias_328ti64kx144_v1a0':`PFMX4.IBIAS', in `tc_4xpfm_1xbias_v1a0':`PFMX4', during hierarchy flattening.
    WARNING (SFE-101): "/iplicense/cad/technology/esf3-28tid/opus61/latest/models/spectre/latest/spec/magb4n.nch_5v_lvt_147.scs" 87: Parameter 'bv_enable' has been ignored because it has been assigned to instance PFMX4.IBIAS.Itop_hv.Icpump_all.Ivsl_cpump.Ipump_unit[0].NPUMPB.MN9999.NCH_5V_LVT_147_T28_mod of master 'bsim4'; however, it has not been defined for 'bsim4'. Specify a valid parameter and rerun the simulation.
Warning from spectre in `NCH_5V_LVT_147_T28':`PFMX4.IBIAS.Itop_hv.Icpump_all.Ivsl_cpump.Ipump_out.MN6.MN9999', in `NCH_5V_LVT_147':`PFMX4.IBIAS.Itop_hv.Icpump_all.Ivsl_cpump.Ipump_out.MN6', in `vsl_pump_outx2':`PFMX4.IBIAS.Itop_hv.Icpump_all.Ivsl_cpump.Ipump_out', in `vsl_cpump':`PFMX4.IBIAS.Itop_hv.Icpump_all.Ivsl_cpump', in `cpump_all':`PFMX4.IBIAS.Itop_hv.Icpump_all', in `top_hv':`PFMX4.IBIAS.Itop_hv', in `bias_328ti64kx144_v1a0':`PFMX4.IBIAS', in `tc_4xpfm_1xbias_v1a0':`PFMX4', during hierarchy flattening.
    WARNING (SFE-101): "/iplicense/cad/technology/esf3-28tid/opus61/latest/models/spectre/latest/spec/magb4n.nch_5v_lvt_147.scs" 87: Parameter 'bv_enable' has been ignored because it has been assigned to instance PFMX4.IBIAS.Itop_hv.Icpump_all.Ivsl_cpump.Ipump_out.MN6.MN9999.NCH_5V_LVT_147_T28_mod of master 'bsim4'; however, it has not been defined for 'bsim4'. Specify a valid parameter and rerun the simulation.
Warning from spectre in `NCH_5V_LVT_147_T28':`PFMX4.IBIAS.Itop_hv.Icpump_all.Ivsl_cpump.Ipump_out.CGBOOSTB0.MN9999', in `NCH_5V_LVT_147':`PFMX4.IBIAS.Itop_hv.Icpump_all.Ivsl_cpump.Ipump_out.CGBOOSTB0', in `vsl_pump_outx2':`PFMX4.IBIAS.Itop_hv.Icpump_all.Ivsl_cpump.Ipump_out', in `vsl_cpump':`PFMX4.IBIAS.Itop_hv.Icpump_all.Ivsl_cpump', in `cpump_all':`PFMX4.IBIAS.Itop_hv.Icpump_all', in `top_hv':`PFMX4.IBIAS.Itop_hv', in `bias_328ti64kx144_v1a0':`PFMX4.IBIAS', in `tc_4xpfm_1xbias_v1a0':`PFMX4', during hierarchy flattening.
    WARNING (SFE-101): "/iplicense/cad/technology/esf3-28tid/opus61/latest/models/spectre/latest/spec/magb4n.nch_5v_lvt_147.scs" 87: Parameter 'bv_enable' has been ignored because it has been assigned to instance PFMX4.IBIAS.Itop_hv.Icpump_all.Ivsl_cpump.Ipump_out.CGBOOSTB0.MN9999.NCH_5V_LVT_147_T28_mod of master 'bsim4'; however, it has not been defined for 'bsim4'. Specify a valid parameter and rerun the simulation.
Warning from spectre in `NCH_5V_LVT_147_T28':`PFMX4.IBIAS.Itop_hv.Icpump_all.Ivsl_cpump.Ipump_out.NGBOOSTB.MN9999', in `NCH_5V_LVT_147':`PFMX4.IBIAS.Itop_hv.Icpump_all.Ivsl_cpump.Ipump_out.NGBOOSTB', in `vsl_pump_outx2':`PFMX4.IBIAS.Itop_hv.Icpump_all.Ivsl_cpump.Ipump_out', in `vsl_cpump':`PFMX4.IBIAS.Itop_hv.Icpump_all.Ivsl_cpump', in `cpump_all':`PFMX4.IBIAS.Itop_hv.Icpump_all', in `top_hv':`PFMX4.IBIAS.Itop_hv', in `bias_328ti64kx144_v1a0':`PFMX4.IBIAS', in `tc_4xpfm_1xbias_v1a0':`PFMX4', during hierarchy flattening.
    WARNING (SFE-101): "/iplicense/cad/technology/esf3-28tid/opus61/latest/models/spectre/latest/spec/magb4n.nch_5v_lvt_147.scs" 87: Parameter 'bv_enable' has been ignored because it has been assigned to instance PFMX4.IBIAS.Itop_hv.Icpump_all.Ivsl_cpump.Ipump_out.NGBOOSTB.MN9999.NCH_5V_LVT_147_T28_mod of master 'bsim4'; however, it has not been defined for 'bsim4'. Specify a valid parameter and rerun the simulation.
Warning from spectre in `NCH_HV_LVT_134_T28':`PFMX4.IBIAS.Itop_hv.Icpump_all.Ivep_cpump.Ipump_unit_hv[6].CPUMPA2.MN9999', in `NCH_HV_LVT_134':`PFMX4.IBIAS.Itop_hv.Icpump_all.Ivep_cpump.Ipump_unit_hv[6].CPUMPA2', in `vep_pump_unitx2_hv':`PFMX4.IBIAS.Itop_hv.Icpump_all.Ivep_cpump.Ipump_unit_hv[6]', in `vep_cpump':`PFMX4.IBIAS.Itop_hv.Icpump_all.Ivep_cpump', in `cpump_all':`PFMX4.IBIAS.Itop_hv.Icpump_all', in `top_hv':`PFMX4.IBIAS.Itop_hv', in `bias_328ti64kx144_v1a0':`PFMX4.IBIAS', in `tc_4xpfm_1xbias_v1a0':`PFMX4', during hierarchy flattening.
    WARNING (SFE-101): "/iplicense/cad/technology/esf3-28tid/opus61/latest/models/spectre/latest/spec/magb4n.nch_hv_lvt_134.scs" 95: Parameter 'bv_enable' has been ignored because it has been assigned to instance PFMX4.IBIAS.Itop_hv.Icpump_all.Ivep_cpump.Ipump_unit_hv[6].CPUMPA2.MN9999.NCH_HV_LVT_134_T28_mod of master 'bsim4'; however, it has not been defined for 'bsim4'. Specify a valid parameter and rerun the simulation.
Warning from spectre in `NCH_HV_LVT_134_T28':`PFMX4.IBIAS.Itop_hv.Icpump_all.Ivep_cpump.Ipump_unit_hv[6].CPUMPA1.MN9999', in `NCH_HV_LVT_134':`PFMX4.IBIAS.Itop_hv.Icpump_all.Ivep_cpump.Ipump_unit_hv[6].CPUMPA1', in `vep_pump_unitx2_hv':`PFMX4.IBIAS.Itop_hv.Icpump_all.Ivep_cpump.Ipump_unit_hv[6]', in `vep_cpump':`PFMX4.IBIAS.Itop_hv.Icpump_all.Ivep_cpump', in `cpump_all':`PFMX4.IBIAS.Itop_hv.Icpump_all', in `top_hv':`PFMX4.IBIAS.Itop_hv', in `bias_328ti64kx144_v1a0':`PFMX4.IBIAS', in `tc_4xpfm_1xbias_v1a0':`PFMX4', during hierarchy flattening.
    WARNING (SFE-101): "/iplicense/cad/technology/esf3-28tid/opus61/latest/models/spectre/latest/spec/magb4n.nch_hv_lvt_134.scs" 95: Parameter 'bv_enable' has been ignored because it has been assigned to instance PFMX4.IBIAS.Itop_hv.Icpump_all.Ivep_cpump.Ipump_unit_hv[6].CPUMPA1.MN9999.NCH_HV_LVT_134_T28_mod of master 'bsim4'; however, it has not been defined for 'bsim4'. Specify a valid parameter and rerun the simulation.
Warning from spectre in `NCH_HV_LVT_134_T28':`PFMX4.IBIAS.Itop_hv.Icpump_all.Ivep_cpump.Ipump_unit_hv[6].NPUMPB.MN9999', in `NCH_HV_LVT_134':`PFMX4.IBIAS.Itop_hv.Icpump_all.Ivep_cpump.Ipump_unit_hv[6].NPUMPB', in `vep_pump_unitx2_hv':`PFMX4.IBIAS.Itop_hv.Icpump_all.Ivep_cpump.Ipump_unit_hv[6]', in `vep_cpump':`PFMX4.IBIAS.Itop_hv.Icpump_all.Ivep_cpump', in `cpump_all':`PFMX4.IBIAS.Itop_hv.Icpump_all', in `top_hv':`PFMX4.IBIAS.Itop_hv', in `bias_328ti64kx144_v1a0':`PFMX4.IBIAS', in `tc_4xpfm_1xbias_v1a0':`PFMX4', during hierarchy flattening.
    WARNING (SFE-101): "/iplicense/cad/technology/esf3-28tid/opus61/latest/models/spectre/latest/spec/magb4n.nch_hv_lvt_134.scs" 95: Parameter 'bv_enable' has been ignored because it has been assigned to instance PFMX4.IBIAS.Itop_hv.Icpump_all.Ivep_cpump.Ipump_unit_hv[6].NPUMPB.MN9999.NCH_HV_LVT_134_T28_mod of master 'bsim4'; however, it has not been defined for 'bsim4'. Specify a valid parameter and rerun the simulation.
Warning from spectre in `NCH_HV_LVT_134_T28':`PFMX4.IBIAS.Itop_hv.Icpump_all.Ivep_cpump.Ipump_unit_hv[6].NCASB[0].MN9999', in `NCH_HV_LVT_134':`PFMX4.IBIAS.Itop_hv.Icpump_all.Ivep_cpump.Ipump_unit_hv[6].NCASB[0]', in `vep_pump_unitx2_hv':`PFMX4.IBIAS.Itop_hv.Icpump_all.Ivep_cpump.Ipump_unit_hv[6]', in `vep_cpump':`PFMX4.IBIAS.Itop_hv.Icpump_all.Ivep_cpump', in `cpump_all':`PFMX4.IBIAS.Itop_hv.Icpump_all', in `top_hv':`PFMX4.IBIAS.Itop_hv', in `bias_328ti64kx144_v1a0':`PFMX4.IBIAS', in `tc_4xpfm_1xbias_v1a0':`PFMX4', during hierarchy flattening.
    WARNING (SFE-101): "/iplicense/cad/technology/esf3-28tid/opus61/latest/models/spectre/latest/spec/magb4n.nch_hv_lvt_134.scs" 95: Parameter 'bv_enable' has been ignored because it has been assigned to instance PFMX4.IBIAS.Itop_hv.Icpump_all.Ivep_cpump.Ipump_unit_hv[6].NCASB[0].MN9999.NCH_HV_LVT_134_T28_mod of master 'bsim4'; however, it has not been defined for 'bsim4'. Specify a valid parameter and rerun the simulation.
Warning from spectre in `NCH_HV_LVT_134_T28':`PFMX4.IBIAS.Itop_hv.Icpump_all.Ivep_cpump.Ipump_unit_hv[6].CPUMPA0.MN9999', in `NCH_HV_LVT_134':`PFMX4.IBIAS.Itop_hv.Icpump_all.Ivep_cpump.Ipump_unit_hv[6].CPUMPA0', in `vep_pump_unitx2_hv':`PFMX4.IBIAS.Itop_hv.Icpump_all.Ivep_cpump.Ipump_unit_hv[6]', in `vep_cpump':`PFMX4.IBIAS.Itop_hv.Icpump_all.Ivep_cpump', in `cpump_all':`PFMX4.IBIAS.Itop_hv.Icpump_all', in `top_hv':`PFMX4.IBIAS.Itop_hv', in `bias_328ti64kx144_v1a0':`PFMX4.IBIAS', in `tc_4xpfm_1xbias_v1a0':`PFMX4', during hierarchy flattening.
    WARNING (SFE-101): "/iplicense/cad/technology/esf3-28tid/opus61/latest/models/spectre/latest/spec/magb4n.nch_hv_lvt_134.scs" 95: Parameter 'bv_enable' has been ignored because it has been assigned to instance PFMX4.IBIAS.Itop_hv.Icpump_all.Ivep_cpump.Ipump_unit_hv[6].CPUMPA0.MN9999.NCH_HV_LVT_134_T28_mod of master 'bsim4'; however, it has not been defined for 'bsim4'. Specify a valid parameter and rerun the simulation.
Warning from spectre in `NCH_HV_LVT_134_T28':`PFMX4.IBIAS.Itop_hv.Icpump_all.Ivep_cpump.Ipump_unit_hv[6].NBOOSTB.MN9999', in `NCH_HV_LVT_134':`PFMX4.IBIAS.Itop_hv.Icpump_all.Ivep_cpump.Ipump_unit_hv[6].NBOOSTB', in `vep_pump_unitx2_hv':`PFMX4.IBIAS.Itop_hv.Icpump_all.Ivep_cpump.Ipump_unit_hv[6]', in `vep_cpump':`PFMX4.IBIAS.Itop_hv.Icpump_all.Ivep_cpump', in `cpump_all':`PFMX4.IBIAS.Itop_hv.Icpump_all', in `top_hv':`PFMX4.IBIAS.Itop_hv', in `bias_328ti64kx144_v1a0':`PFMX4.IBIAS', in `tc_4xpfm_1xbias_v1a0':`PFMX4', during hierarchy flattening.
    WARNING (SFE-101): "/iplicense/cad/technology/esf3-28tid/opus61/latest/models/spectre/latest/spec/magb4n.nch_hv_lvt_134.scs" 95: Parameter 'bv_enable' has been ignored because it has been assigned to instance PFMX4.IBIAS.Itop_hv.Icpump_all.Ivep_cpump.Ipump_unit_hv[6].NBOOSTB.MN9999.NCH_HV_LVT_134_T28_mod of master 'bsim4'; however, it has not been defined for 'bsim4'. Specify a valid parameter and rerun the simulation.
Warning from spectre in `NCH_HV_LVT_134_T28':`PFMX4.IBIAS.Itop_hv.Icpump_all.Ivep_cpump.Ipump_unit_hv[6].CBOOSTA.MN9999', in `NCH_HV_LVT_134':`PFMX4.IBIAS.Itop_hv.Icpump_all.Ivep_cpump.Ipump_unit_hv[6].CBOOSTA', in `vep_pump_unitx2_hv':`PFMX4.IBIAS.Itop_hv.Icpump_all.Ivep_cpump.Ipump_unit_hv[6]', in `vep_cpump':`PFMX4.IBIAS.Itop_hv.Icpump_all.Ivep_cpump', in `cpump_all':`PFMX4.IBIAS.Itop_hv.Icpump_all', in `top_hv':`PFMX4.IBIAS.Itop_hv', in `bias_328ti64kx144_v1a0':`PFMX4.IBIAS', in `tc_4xpfm_1xbias_v1a0':`PFMX4', during hierarchy flattening.
[...]
    WARNING (CMI-2377): PFMX4.IPFM[0].IIP.Imidblk.Imid_b.Imid[1].Ixpz.I0[0].MP2.MP9999: Vgd has exceeded the oxide breakdown voltage of `vbox' = 1.65 V.
    WARNING (CMI-2377): PFMX4.IPFM[0].IIP.Imidblk.Imid_t.Imid[1].Ixpz.I0[0].MP2.MP9999: Vgd has exceeded the oxide breakdown voltage of `vbox' = 1.65 V.
    WARNING (CMI-2377): PFMX4.IPFM[0].IIP.Imidblk.Imid_t.Imid[0].Ixpz.I0[0].MP2.MP9999: Vgd has exceeded the oxide breakdown voltage of `vbox' = 1.65 V.
    WARNING (CMI-2375): PFMX4.IPFM[1].IIP.Imidblk.Imid_t.Imid[0].Ixpz.I0[0].MP2.MP9999: Vgs has exceeded the oxide breakdown voltage of `vbox' = 1.65 V.
    WARNING (CMI-2377): PFMX4.IPFM[1].IIP.Imidblk.Imid_t.Imid[0].Ixpz.I0[0].MP2.MP9999: Vgd has exceeded the oxide breakdown voltage of `vbox' = 1.65 V.
    WARNING (CMI-2377): PFMX4.IPFM[0].IIP.Imidblk.Imid_b.Imid[0].Ixpz.I0[0].MP2.MP9999: Vgd has exceeded the oxide breakdown voltage of `vbox' = 1.65 V.
Warning from spectre at time = 22.7711 us during transient analysis `TT_1p10_3p00_25'.
    WARNING (CMI-2375): PFMX4.IPFM[0].IIP.Imidblk.Imid_b.Imid[1].Ixpz.I0[0].MP2.MP9999: Vgs has exceeded the oxide breakdown voltage of `vbox' = 1.65 V.
    WARNING (CMI-2375): PFMX4.IPFM[0].IIP.Imidblk.Imid_t.Imid[1].Ixpz.I0[0].MP2.MP9999: Vgs has exceeded the oxide breakdown voltage of `vbox' = 1.65 V.
    WARNING (CMI-2375): PFMX4.IPFM[0].IIP.Imidblk.Imid_t.Imid[0].Ixpz.I0[0].MP2.MP9999: Vgs has exceeded the oxide breakdown voltage of `vbox' = 1.65 V.
    WARNING (CMI-2375): PFMX4.IPFM[0].IIP.Imidblk.Imid_b.Imid[0].Ixpz.I0[0].MP2.MP9999: Vgs has exceeded the oxide breakdown voltage of `vbox' = 1.65 V.
Warning from spectre at time = 22.7712 us during transient analysis `TT_1p10_3p00_25'.
    WARNING (CMI-2377): PFMX4.IPFM[0].IIP.Imidblk.Imid_b.Imid[0].Iym[0].Iypdec.I22.MP2.MP9999: Vgd has exceeded the oxide breakdown voltage of `vbox' = 1.65 V.
    WARNING (CMI-2375): PFMX4.IPFM[0].IIP.Imidblk.Imid_b.Imid[0].Ixpz.I15[0].MP2.MP9999: Vgs has exceeded the oxide breakdown voltage of `vbox' = 1.65 V.
    WARNING (CMI-2377): PFMX4.IPFM[0].IIP.Imidblk.Imid_b.Imid[0].Ixpz.I15[0].MP2.MP9999: Vgd has exceeded the oxide breakdown voltage of `vbox' = 1.65 V.
    WARNING (CMI-2375): PFMX4.IPFM[1].IIP.Imidblk.Imid_b.Imid[0].Iym[0].Iypdec.I22.MP2.MP9999: Vgs has exceeded the oxide breakdown voltage of `vbox' = 1.65 V.
    WARNING (CMI-2377): PFMX4.IPFM[1].IIP.Imidblk.Imid_b.Imid[0].Iym[0].Iypdec.I22.MP2.MP9999: Vgd has exceeded the oxide breakdown voltage of `vbox' = 1.65 V.
    WARNING (CMI-2375): PFMX4.IPFM[1].IIP.Imidblk.Imid_b.Imid[0].Ixpz.I15[0].MP2.MP9999: Vgs has exceeded the oxide breakdown voltage of `vbox' = 1.65 V.
    WARNING (CMI-2377): PFMX4.IPFM[1].IIP.Imidblk.Imid_b.Imid[0].Ixpz.I15[0].MP2.MP9999: Vgd has exceeded the oxide breakdown voltage of `vbox' = 1.65 V.
Warning from spectre at time = 22.7712 us during transient analysis `TT_1p10_3p00_25'.
    WARNING (CMI-2375): PFMX4.IPFM[0].IIP.Imidblk.Imid_b.Imid[0].Iym[0].Iypdec.I22.MP2.MP9999: Vgs has exceeded the oxide breakdown voltage of `vbox' = 1.65 V.
Warning from spectre at time = 22.7713 us during transient analysis `TT_1p10_3p00_25'.
    WARNING (CMI-2375): PFMX4.IPFM[0].IIP.Imidblk.Imid_b.Imid[0].Iym[0].Iypdec.I8[1].MP2.MP9999: Vgs has exceeded the oxide breakdown voltage of `vbox' = 1.65 V.
    WARNING (CMI-2377): PFMX4.IPFM[0].IIP.Imidblk.Imid_b.Imid[0].Iym[0].Iypdec.I8[1].MP2.MP9999: Vgd has exceeded the oxide breakdown voltage of `vbox' = 1.65 V.
    WARNING (CMI-2375): PFMX4.IPFM[0].IIP.Imidblk.Imid_b.Imid[0].Iym[0].Iypdec.I48[2].MP2.MP9999: Vgs has exceeded the oxide breakdown voltage of `vbox' = 1.65 V.
    WARNING (CMI-2377): PFMX4.IPFM[0].IIP.Imidblk.Imid_b.Imid[0].Iym[0].Iypdec.I48[2].MP2.MP9999: Vgd has exceeded the oxide breakdown voltage of `vbox' = 1.65 V.
    WARNING (CMI-2375): PFMX4.IPFM[1].IIP.Imidblk.Imid_b.Imid[0].Iym[0].Iypdec.I8[1].MP2.MP9999: Vgs has exceeded the oxide breakdown voltage of `vbox' = 1.65 V.
    WARNING (CMI-2377): PFMX4.IPFM[1].IIP.Imidblk.Imid_b.Imid[0].Iym[0].Iypdec.I8[1].MP2.MP9999: Vgd has exceeded the oxide breakdown voltage of `vbox' = 1.65 V.
    WARNING (CMI-2375): PFMX4.IPFM[1].IIP.Imidblk.Imid_b.Imid[0].Iym[0].Iypdec.I48[2].MP2.MP9999: Vgs has exceeded the oxide breakdown voltage of `vbox' = 1.65 V.
    WARNING (CMI-2377): PFMX4.IPFM[1].IIP.Imidblk.Imid_b.Imid[0].Iym[0].Iypdec.I48[2].MP2.MP9999: Vgd has exceeded the oxide breakdown voltage of `vbox' = 1.65 V.
Warning from spectre at time = 22.9764 us during transient analysis `TT_1p10_3p00_25'.
    WARNING (CMI-2375): PFMX4.IPFM[1].IIP.Ichiperi.Ianalog.Iv2i.Ivrefgen.I21[0].MP2.MP9999: Vgs has exceeded the oxide breakdown voltage of `vbox' = 1.65 V.
    WARNING (CMI-2377): PFMX4.IPFM[1].IIP.Ichiperi.Ianalog.Iv2i.Ivrefgen.I21[0].MP2.MP9999: Vgd has exceeded the oxide breakdown voltage of `vbox' = 1.65 V.
    WARNING (CMI-2377): PFMX4.IPFM[0].IIP.Ichiperi.Ianalog.Iv2i.Ivrefgen.I21[0].MP2.MP9999: Vgd has exceeded the oxide breakdown voltage of `vbox' = 1.65 V.
Warning from spectre at time = 22.9764 us during transient analysis `TT_1p10_3p00_25'.
    WARNING (CMI-2375): PFMX4.IPFM[0].IIP.Ichiperi.Ianalog.Iv2i.Ivrefgen.I21[0].MP2.MP9999: Vgs has exceeded the oxide breakdown voltage of `vbox' = 1.65 V.
Warning from spectre at time = 22.9765 us during transient analysis `TT_1p10_3p00_25'.
    WARNING (CMI-2377): PFMX4.IPFM[1].IIP.Ichiperi.Itop_cri.Icasref.Icasref_ctrl.I43.MN1.MN9999: Vgd has exceeded the oxide breakdown voltage of `vbox' = 1.65 V.
    WARNING (CMI-2375): PFMX4.IPFM[1].IIP.Ichiperi.Itop_cri.Icasref.Icasref_ctrl.I43.MP1.MP9999: Vgs has exceeded the oxide breakdown voltage of `vbox' = 1.65 V.
    WARNING (CMI-2377): PFMX4.IPFM[1].IIP.Ichiperi.Itop_cri.Icasref.Icasref_ctrl.I43.MP1.MP9999: Vgd has exceeded the oxide breakdown voltage of `vbox' = 1.65 V.
    WARNING (CMI-2375): PFMX4.IPFM[1].IIP.Ichiperi.Itop_cri.Icasref.Icasref_ctrl.I54.MP2.MP9999: Vgs has exceeded the oxide breakdown voltage of `vbox' = 1.65 V.
    WARNING (CMI-2377): PFMX4.IPFM[1].IIP.Ichiperi.Itop_cri.Icasref.Icasref_ctrl.I54.MP2.MP9999: Vgd has exceeded the oxide breakdown voltage of `vbox' = 1.65 V.
    WARNING (CMI-2377): PFMX4.IPFM[0].IIP.Ichiperi.Itop_cri.Icasref.Icasref_ctrl.I54.MP2.MP9999: Vgd has exceeded the oxide breakdown voltage of `vbox' = 1.65 V.
Warning from spectre at time = 22.9765 us during transient analysis `TT_1p10_3p00_25'.
    WARNING (CMI-2377): PFMX4.IPFM[0].IIP.Ichiperi.Itop_cri.Icasref.Icasref_ctrl.I43.MN1.MN9999: Vgd has exceeded the oxide breakdown voltage of `vbox' = 1.65 V.
    WARNING (CMI-2375): PFMX4.IPFM[0].IIP.Ichiperi.Itop_cri.Icasref.Icasref_ctrl.I43.MP1.MP9999: Vgs has exceeded the oxide breakdown voltage of `vbox' = 1.65 V.
    WARNING (CMI-2377): PFMX4.IPFM[0].IIP.Ichiperi.Itop_cri.Icasref.Icasref_ctrl.I43.MP1.MP9999: Vgd has exceeded the oxide breakdown voltage of `vbox' = 1.65 V.
    WARNING (CMI-2375): PFMX4.IPFM[0].IIP.Ichiperi.Itop_cri.Icasref.Icasref_ctrl.I54.MP2.MP9999: Vgs has exceeded the oxide breakdown voltage of `vbox' = 1.65 V.
Warning from spectre at time = 22.9765 us during transient analysis `TT_1p10_3p00_25'.
    WARNING (CMI-2377): PFMX4.IPFM[1].IIP.Ichiperi.Itop_cri.Icasref.Icasref_ctrl.I52.MP2.MP9999: Vgd has exceeded the oxide breakdown voltage of `vbox' = 1.65 V.
Warning from spectre at time = 22.9765 us during transient analysis `TT_1p10_3p00_25'.
    WARNING (CMI-2375): PFMX4.IPFM[1].IIP.Ichiperi.Itop_cri.Icasref.Icasref_ctrl.I52.MP2.MP9999: Vgs has exceeded the oxide breakdown voltage of `vbox' = 1.65 V.
    WARNING (CMI-2375): PFMX4.IPFM[0].IIP.Ichiperi.Itop_cri.Icasref.Icasref_ctrl.I52.MP2.MP9999: Vgs has exceeded the oxide breakdown voltage of `vbox' = 1.65 V.
    WARNING (CMI-2377): PFMX4.IPFM[0].IIP.Ichiperi.Itop_cri.Icasref.Icasref_ctrl.I52.MP2.MP9999: Vgd has exceeded the oxide breakdown voltage of `vbox' = 1.65 V.
    WARNING (CMI-2377): PFMX4.IPFM[1].IIP.Imidblk.Ipword.I14.MP2.MP9999: Vgd has exceeded the oxide breakdown voltage of `vbox' = 1.65 V.
Warning from spectre at time = 22.9766 us during transient analysis `TT_1p10_3p00_25'.
    WARNING (CMI-2375): PFMX4.IPFM[1].IIP.Ichiperi.Ivdwlctrl.I8.MP3.MP9999: Vgs has exceeded the oxide breakdown voltage of `vbox' = 1.65 V.
    WARNING (CMI-2377): PFMX4.IPFM[1].IIP.Ichiperi.Ivdwlctrl.I8.MP3.MP9999: Vgd has exceeded the oxide breakdown voltage of `vbox' = 1.65 V.
    WARNING (CMI-2375): PFMX4.IPFM[0].IIP.Ichiperi.Ivdwlctrl.I8.MP3.MP9999: Vgs has exceeded the oxide breakdown voltage of `vbox' = 1.65 V.
    WARNING (CMI-2377): PFMX4.IPFM[0].IIP.Ichiperi.Ivdwlctrl.I8.MP3.MP9999: Vgd has exceeded the oxide breakdown voltage of `vbox' = 1.65 V.
Warning from spectre at time = 22.9766 us during transient analysis `TT_1p10_3p00_25'.
    WARNING (CMI-2377): PFMX4.IPFM[0].IIP.Imidblk.Imid_b.Imid[0].Iym[0].Iargnd.I2.MP2.MP9999: Vgd has exceeded the oxide breakdown voltage of `vbox' = 1.65 V.
    WARNING (CMI-2377): PFMX4.IPFM[1].IIP.Imidblk.Imid_b.Imid[0].Iym[0].Iargnd.I2.MP2.MP9999: Vgd has exceeded the oxide breakdown voltage of `vbox' = 1.65 V.
Warning from spectre at time = 22.9766 us during transient analysis `TT_1p10_3p00_25'.
    WARNING (CMI-2377): PFMX4.IPFM[0].IIP.Imidblk.Imid_b.Imid[0].Iym[0].Iargnd.I1.MN0.MN9999: Vgd has exceeded the oxide breakdown voltage of `vbox' = 1.65 V.
    WARNING (CMI-2375): PFMX4.IPFM[0].IIP.Imidblk.Imid_b.Imid[0].Iym[0].Iargnd.I1.MP0.MP9999: Vgs has exceeded the oxide breakdown voltage of `vbox' = 1.65 V.
    WARNING (CMI-2377): PFMX4.IPFM[0].IIP.Imidblk.Imid_b.Imid[0].Iym[0].Iargnd.I1.MP0.MP9999: Vgd has exceeded the oxide breakdown voltage of `vbox' = 1.65 V.
    WARNING (CMI-2375): PFMX4.IPFM[0].IIP.Imidblk.Imid_b.Imid[0].Iym[0].Iargnd.I2.MP2.MP9999: Vgs has exceeded the oxide breakdown voltage of `vbox' = 1.65 V.
    WARNING (CMI-2377): PFMX4.IPFM[1].IIP.Imidblk.Imid_b.Imid[0].Iym[0].Iargnd.I1.MN0.MN9999: Vgd has exceeded the oxide breakdown voltage of `vbox' = 1.65 V.
    WARNING (CMI-2375): PFMX4.IPFM[1].IIP.Imidblk.Imid_b.Imid[0].Iym[0].Iargnd.I1.MP0.MP9999: Vgs has exceeded the oxide breakdown voltage of `vbox' = 1.65 V.
    WARNING (CMI-2377): PFMX4.IPFM[1].IIP.Imidblk.Imid_b.Imid[0].Iym[0].Iargnd.I1.MP0.MP9999: Vgd has exceeded the oxide breakdown voltage of `vbox' = 1.65 V.
    WARNING (CMI-2375): PFMX4.IPFM[1].IIP.Imidblk.Imid_b.Imid[0].Iym[0].Iargnd.I2.MP2.MP9999: Vgs has exceeded the oxide breakdown voltage of `vbox' = 1.65 V.
Warning from spectre at time = 22.9767 us during transient analysis `TT_1p10_3p00_25'.
    WARNING (CMI-2375): PFMX4.IPFM[1].IIP.Ichiperi.Ianalog.Iv2i.Ivrefgen.I6[0].MP2.MP9999: Vgs has exceeded the oxide breakdown voltage of `vbox' = 1.65 V.
    WARNING (CMI-2377): PFMX4.IPFM[1].IIP.Ichiperi.Ianalog.Iv2i.Ivrefgen.I6[0].MP2.MP9999: Vgd has exceeded the oxide breakdown voltage of `vbox' = 1.65 V.
    WARNING (CMI-2375): PFMX4.IPFM[0].IIP.Ichiperi.Ianalog.Iv2i.Ivrefgen.I6[0].MP2.MP9999: Vgs has exceeded the oxide breakdown voltage of `vbox' = 1.65 V.
    WARNING (CMI-2377): PFMX4.IPFM[0].IIP.Ichiperi.Ianalog.Iv2i.Ivrefgen.I6[0].MP2.MP9999: Vgd has exceeded the oxide breakdown voltage of `vbox' = 1.65 V.
Warning from spectre at time = 22.9768 us during transient analysis `TT_1p10_3p00_25'.
    WARNING (CMI-2375): PFMX4.IPFM[1].IIP.Ichiperi.Ianalog.Iv2i.Ivrefgen.I23[0].MP2.MP9999: Vgs has exceeded the oxide breakdown voltage of `vbox' = 1.65 V.
    WARNING (CMI-2377): PFMX4.IPFM[1].IIP.Ichiperi.Ianalog.Iv2i.Ivrefgen.I23[0].MP2.MP9999: Vgd has exceeded the oxide breakdown voltage of `vbox' = 1.65 V.
    WARNING (CMI-2375): PFMX4.IPFM[0].IIP.Ichiperi.Ianalog.Iv2i.Ivrefgen.I23[0].MP2.MP9999: Vgs has exceeded the oxide breakdown voltage of `vbox' = 1.65 V.
    WARNING (CMI-2377): PFMX4.IPFM[0].IIP.Ichiperi.Ianalog.Iv2i.Ivrefgen.I23[0].MP2.MP9999: Vgd has exceeded the oxide breakdown voltage of `vbox' = 1.65 V.
Warning from spectre at time = 22.9807 us during transient analysis `TT_1p10_3p00_25'.
    WARNING (CMI-2377): PFMX4.IPFM[0].IIP.Imidblk.Imid_b.Imid[0].Islpd[3]_turbo_m4.MP0.MP9999: Vgd has exceeded the oxide breakdown voltage of `vbox' = 1.65 V.
    WARNING (CMI-2377): PFMX4.IPFM[1].IIP.Imidblk.Imid_b.Imid[0].Islpd[3]_turbo_m4.MP0.MP9999: Vgd has exceeded the oxide breakdown voltage of `vbox' = 1.65 V.
Warning from spectre at time = 23.0651 us during transient analysis `TT_1p10_3p00_25'.
    WARNING (CMI-2377): PFMX4.IPFM[1].IIP.Ichiperi.Ivdwlctrl.I16.MN0.MN9999: Vgd has exceeded the oxide breakdown voltage of `vbox' = 1.65 V.
    WARNING (CMI-2377): PFMX4.IPFM[1].IIP.Ichiperi.Ivdwlctrl.I13.MN0.MN9999: Vgd has exceeded the oxide breakdown voltage of `vbox' = 1.65 V.
    WARNING (CMI-2375): PFMX4.IPFM[1].IIP.Ichiperi.Ivdwlctrl.I16.MP0.MP9999: Vgs has exceeded the oxide breakdown voltage of `vbox' = 1.65 V.
    WARNING (CMI-2377): PFMX4.IPFM[1].IIP.Ichiperi.Ivdwlctrl.I16.MP0.MP9999: Vgd has exceeded the oxide breakdown voltage of `vbox' = 1.65 V.
    WARNING (CMI-2375): PFMX4.IPFM[1].IIP.Ichiperi.Ivdwlctrl.I13.MP0.MP9999: Vgs has exceeded the oxide breakdown voltage of `vbox' = 1.65 V.
    WARNING (CMI-2377): PFMX4.IPFM[1].IIP.Ichiperi.Ivdwlctrl.I13.MP0.MP9999: Vgd has exceeded the oxide breakdown voltage of `vbox' = 1.65 V.
    WARNING (CMI-2375): PFMX4.IPFM[1].IIP.Ichiperi.Ivdwlctrl.I17.MP2.MP9999: Vgs has exceeded the oxide breakdown voltage of `vbox' = 1.65 V.
    WARNING (CMI-2377): PFMX4.IPFM[1].IIP.Ichiperi.Ivdwlctrl.I17.MP2.MP9999: Vgd has exceeded the oxide breakdown voltage of `vbox' = 1.65 V.
    WARNING (CMI-2375): PFMX4.IPFM[1].IIP.Ichiperi.Ivdwlctrl.I14.MP2.MP9999: Vgs has exceeded the oxide breakdown voltage of `vbox' = 1.65 V.
    WARNING (CMI-2377): PFMX4.IPFM[0].IIP.Ichiperi.Ivdwlctrl.I16.MN0.MN9999: Vgd has exceeded the oxide breakdown voltage of `vbox' = 1.65 V.
    WARNING (CMI-2377): PFMX4.IPFM[0].IIP.Ichiperi.Ivdwlctrl.I13.MN0.MN9999: Vgd has exceeded the oxide breakdown voltage of `vbox' = 1.65 V.
    WARNING (CMI-2375): PFMX4.IPFM[0].IIP.Ichiperi.Ivdwlctrl.I16.MP0.MP9999: Vgs has exceeded the oxide breakdown voltage of `vbox' = 1.65 V.
    WARNING (CMI-2377): PFMX4.IPFM[0].IIP.Ichiperi.Ivdwlctrl.I16.MP0.MP9999: Vgd has exceeded the oxide breakdown voltage of `vbox' = 1.65 V.
    WARNING (CMI-2375): PFMX4.IPFM[0].IIP.Ichiperi.Ivdwlctrl.I13.MP0.MP9999: Vgs has exceeded the oxide breakdown voltage of `vbox' = 1.65 V.
    WARNING (CMI-2377): PFMX4.IPFM[0].IIP.Ichiperi.Ivdwlctrl.I13.MP0.MP9999: Vgd has exceeded the oxide breakdown voltage of `vbox' = 1.65 V.
    WARNING (CMI-2375): PFMX4.IPFM[0].IIP.Ichiperi.Ivdwlctrl.I17.MP2.MP9999: Vgs has exceeded the oxide breakdown voltage of `vbox' = 1.65 V.
    WARNING (CMI-2377): PFMX4.IPFM[0].IIP.Ichiperi.Ivdwlctrl.I17.MP2.MP9999: Vgd has exceeded the oxide breakdown voltage of `vbox' = 1.65 V.
    WARNING (CMI-2375): PFMX4.IPFM[0].IIP.Ichiperi.Ivdwlctrl.I14.MP2.MP9999: Vgs has exceeded the oxide breakdown voltage of `vbox' = 1.65 V.
Warning from spectre at time = 23.0654 us during transient analysis `TT_1p10_3p00_25'.
    WARNING (CMI-2377): PFMX4.IPFM[1].IIP.Ichiperi.Ivdwlctrl.PDISCH.MP9999: Vgd has exceeded the oxide breakdown voltage of `vbox' = 1.65 V.
    WARNING (CMI-2377): PFMX4.IPFM[0].IIP.Ichiperi.Ivdwlctrl.PDISCH.MP9999: Vgd has exceeded the oxide breakdown voltage of `vbox' = 1.65 V.
Warning from spectre at time = 23.1263 us during transient analysis `TT_1p10_3p00_25'.
    WARNING (CMI-2375): PFMX4.IPFM[0].IIP.Imidblk.Imid_b.Imid[0].Iym[0].Iypdec.I8[0].MP2.MP9999: Vgs has exceeded the oxide breakdown voltage of `vbox' = 1.65 V.
    WARNING (CMI-2377): PFMX4.IPFM[0].IIP.Imidblk.Imid_b.Imid[0].Iym[0].Iypdec.I8[0].MP2.MP9999: Vgd has exceeded the oxide breakdown voltage of `vbox' = 1.65 V.
    WARNING (CMI-2375): PFMX4.IPFM[1].IIP.Imidblk.Imid_b.Imid[0].Iym[0].Iypdec.I8[0].MP2.MP9999: Vgs has exceeded the oxide breakdown voltage of `vbox' = 1.65 V.
    WARNING (CMI-2377): PFMX4.IPFM[1].IIP.Imidblk.Imid_b.Imid[0].Iym[0].Iypdec.I8[0].MP2.MP9999: Vgd has exceeded the oxide breakdown voltage of `vbox' = 1.65 V.
Warning from spectre at time = 23.1264 us during transient analysis `TT_1p10_3p00_25'.
    WARNING (CMI-2375): PFMX4.IPFM[0].IIP.Imidblk.Imid_b.Imid[0].Iym[0].Iypdec.I48[0].MP2.MP9999: Vgs has exceeded the oxide breakdown voltage of `vbox' = 1.65 V.
    WARNING (CMI-2377): PFMX4.IPFM[0].IIP.Imidblk.Imid_b.Imid[0].Iym[0].Iypdec.I48[0].MP2.MP9999: Vgd has exceeded the oxide breakdown voltage of `vbox' = 1.65 V.
    WARNING (CMI-2375): PFMX4.IPFM[1].IIP.Imidblk.Imid_b.Imid[0].Iym[0].Iypdec.I48[0].MP2.MP9999: Vgs has exceeded the oxide breakdown voltage of `vbox' = 1.65 V.
    WARNING (CMI-2377): PFMX4.IPFM[1].IIP.Imidblk.Imid_b.Imid[0].Iym[0].Iypdec.I48[0].MP2.MP9999: Vgd has exceeded the oxide breakdown voltage of `vbox' = 1.65 V.

..

Warning from spectre at time = 27.3763 us during transient analysis `TT_1p10_3p00_25'.
    WARNING (CMI-2375): PFMX4.IPFM[0].IIP.Imidblk.Imid_b.Imid[0].Ixpz.I15[0].MP2.MP9999: Vgs has exceeded the oxide breakdown voltage of `vbox' = 1.65 V.
    WARNING (CMI-2377): PFMX4.IPFM[0].IIP.Imidblk.Imid_b.Imid[0].Ixpz.I15[0].MP2.MP9999: Vgd has exceeded the oxide breakdown voltage of `vbox' = 1.65 V.
Warning from spectre at time = 27.3763 us during transient analysis `TT_1p10_3p00_25'.
    WARNING (CMI-2375): PFMX4.IPFM[1].IIP.Imidblk.Imid_t.Imid[1].Ixpz.I0[0].MP2.MP9999: Vgs has exceeded the oxide breakdown voltage of `vbox' = 1.65 V.
    WARNING (CMI-2377): PFMX4.IPFM[1].IIP.Imidblk.Imid_t.Imid[1].Ixpz.I0[0].MP2.MP9999: Vgd has exceeded the oxide breakdown voltage of `vbox' = 1.65 V.
    WARNING (CMI-2375): PFMX4.IPFM[1].IIP.Imidblk.Imid_b.Imid[1].Ixpz.I0[0].MP2.MP9999: Vgs has exceeded the oxide breakdown voltage of `vbox' = 1.65 V.
    WARNING (CMI-2377): PFMX4.IPFM[1].IIP.Imidblk.Imid_b.Imid[1].Ixpz.I0[0].MP2.MP9999: Vgd has exceeded the oxide breakdown voltage of `vbox' = 1.65 V.
    WARNING (CMI-2375): PFMX4.IPFM[1].IIP.Imidblk.Imid_b.Imid[0].Ixpz.I0[0].MP2.MP9999: Vgs has exceeded the oxide breakdown voltage of `vbox' = 1.65 V.
    WARNING (CMI-2377): PFMX4.IPFM[1].IIP.Imidblk.Imid_b.Imid[0].Ixpz.I0[0].MP2.MP9999: Vgd has exceeded the oxide breakdown voltage of `vbox' = 1.65 V.
    WARNING (CMI-2375): PFMX4.IPFM[0].IIP.Imidblk.Imid_b.Imid[1].Ixpz.I0[0].MP2.MP9999: Vgs has exceeded the oxide breakdown voltage of `vbox' = 1.65 V.
    WARNING (CMI-2377): PFMX4.IPFM[0].IIP.Imidblk.Imid_b.Imid[1].Ixpz.I0[0].MP2.MP9999: Vgd has exceeded the oxide breakdown voltage of `vbox' = 1.65 V.
    WARNING (CMI-2375): PFMX4.IPFM[0].IIP.Imidblk.Imid_t.Imid[1].Ixpz.I0[0].MP2.MP9999: Vgs has exceeded the oxide breakdown voltage of `vbox' = 1.65 V.
    WARNING (CMI-2377): PFMX4.IPFM[0].IIP.Imidblk.Imid_t.Imid[1].Ixpz.I0[0].MP2.MP9999: Vgd has exceeded the oxide breakdown voltage of `vbox' = 1.65 V.
    WARNING (CMI-2375): PFMX4.IPFM[0].IIP.Imidblk.Imid_t.Imid[0].Ixpz.I0[0].MP2.MP9999: Vgs has exceeded the oxide breakdown voltage of `vbox' = 1.65 V.
    WARNING (CMI-2377): PFMX4.IPFM[0].IIP.Imidblk.Imid_t.Imid[0].Ixpz.I0[0].MP2.MP9999: Vgd has exceeded the oxide breakdown voltage of `vbox' = 1.65 V.
    WARNING (CMI-2375): PFMX4.IPFM[1].IIP.Imidblk.Imid_t.Imid[0].Ixpz.I0[0].MP2.MP9999: Vgs has exceeded the oxide breakdown voltage of `vbox' = 1.65 V.
    WARNING (CMI-2377): PFMX4.IPFM[1].IIP.Imidblk.Imid_t.Imid[0].Ixpz.I0[0].MP2.MP9999: Vgd has exceeded the oxide breakdown voltage of `vbox' = 1.65 V.
    WARNING (CMI-2375): PFMX4.IPFM[0].IIP.Imidblk.Imid_b.Imid[0].Ixpz.I0[0].MP2.MP9999: Vgs has exceeded the oxide breakdown voltage of `vbox' = 1.65 V.
    WARNING (CMI-2377): PFMX4.IPFM[0].IIP.Imidblk.Imid_b.Imid[0].Ixpz.I0[0].MP2.MP9999: Vgd has exceeded the oxide breakdown voltage of `vbox' = 1.65 V.
    WARNING (CMI-2375): PFMX4.IPFM[1].IIP.Imidblk.Imid_b.Imid[0].Ixpz.I15[0].MP2.MP9999: Vgs has exceeded the oxide breakdown voltage of `vbox' = 1.65 V.
    WARNING (CMI-2377): PFMX4.IPFM[1].IIP.Imidblk.Imid_b.Imid[0].Ixpz.I15[0].MP2.MP9999: Vgd has exceeded the oxide breakdown voltage of `vbox' = 1.65 V.

.